12
Energy =
C    -0.0662396    0.0001805   -0.0278336 
C     0.0098292    0.0001425    1.3929116 
C     1.2251449    0.0000783    2.1172061 
C     2.4335400   -0.0000150    1.4195099 
C     2.4138884   -0.0000387    0.0049911 
C     1.2213702   -0.0001764   -0.7713294 
H    -0.9453969   -0.0000641    1.9337840 
H     1.2107879   -0.0003624    3.2115997 
H     3.3885222    0.0002094    1.9544626 
H     3.3598555    0.0001470   -0.5520270 
O     1.2318691   -0.0004990   -2.0772556 
O    -1.2024148    0.0003979   -0.6720218 
