18
Energy =
C    -1.3005494    0.0003601   -2.1425942 
C    -1.2324460   -0.0000108   -0.7322131 
C    -0.0215063   -0.0001176    0.0125264 
C     1.2339610    0.0000345   -0.7122846 
C     1.1944407   -0.0000950   -2.1332089 
C     0.0070572   -0.0002624   -2.8975471 
C     2.4419290    0.0002819    0.0346993 
C     2.4488742    0.0001489    1.4289570 
C     1.2256516   -0.0000523    2.1351123 
C     0.0214974   -0.0003505    1.4320882 
H     2.1435564   -0.0004407   -2.6845822 
H    -2.1846913    0.0001936   -0.1860991 
H    -0.9264196   -0.0007040    1.9802047 
H     1.2222721   -0.0001280    3.2277044 
H     3.3968667    0.0003537    1.9723614 
H     3.3907398    0.0005345   -0.5121750 
O    -0.0045261   -0.0008048   -4.1901972 
O    -2.4141306    0.0010590   -2.7992702 
