18
Energy =
C     1.2015917   -0.0004828    3.5384576 
C     1.2293301   -0.0008255    2.1279588 
C    -0.0384160   -0.0009235    1.4099681 
C    -1.3175660   -0.0018198    2.0893857 
C    -1.3056466    0.0011268    3.5567643 
C    -0.0283902    0.0002715    4.2032953 
C     2.4390672   -0.0006656    1.3761741 
C     2.4443543    0.0003799   -0.0081786 
C     1.2058016    0.0009944   -0.7148234 
C     0.0122619    0.0001201   -0.0159040 
H     3.3870853   -0.0011076    1.9249912 
H     3.3892337    0.0007885   -0.5566242 
H     1.2042123    0.0020973   -1.8078120 
H     2.1413672   -0.0012092    4.0993376 
H    -0.0494586    0.0010359    5.3004377 
H    -0.9445410    0.0004865   -0.5447120 
O    -2.4390387   -0.0040348    1.4300796 
O    -2.4177910    0.0037681    4.2411853 
