24
Energy =
C     0.0169988    0.0000814   -0.0448469 
C    -0.0267878    0.0009590    1.3993582 
C     1.2153758    0.0008972    2.1034303 
C     2.4345301   -0.0001191    1.4506908 
C     2.4747915   -0.0008822    0.0338350 
C     1.2827914   -0.0006322   -0.6806829 
H     1.1609122    0.0014476    3.1942076 
H     3.3655028   -0.0004715    2.0236284 
H     3.4308928   -0.0016816   -0.4936690 
H     1.3336400   -0.0012741   -1.7714762 
C    -1.2329147   -0.0001680   -0.7690122 
C    -2.4641975   -0.0009682   -0.0122835 
C    -3.6927891   -0.0007917   -0.7397924 
C    -3.7326931    0.0002170   -2.1221662 
C    -2.5235588    0.0009116   -2.8618880 
C    -1.3107249    0.0005351   -2.1833622 
C    -2.5150052   -0.0016241    1.4414132 
H    -4.6123613   -0.0012092   -0.1504848 
H    -4.6927150    0.0005963   -2.6451437 
H    -2.5417900    0.0017984   -3.9535927 
H    -0.3895759    0.0010513   -2.7694590 
C    -1.2621274    0.0015118    2.1672018 
O    -3.6580878   -0.0036396    2.0661456 
O    -1.2347715    0.0034548    3.4694396 
