24
Energy =
C    -0.0260748   -0.0000502   -0.0128674 
C    -0.0078216   -0.0001448    1.3907348 
C     1.1911318   -0.0002006    2.1366351 
C     2.4365125    0.0000032    1.3878643 
C     2.4182573   -0.0001122   -0.0157366 
C     1.2193028   -0.0002089   -0.7616369 
H    -0.9632476   -0.0001051    1.9262741 
C     1.2242618   -0.0002860    3.5600062 
C     3.6553552    0.0002083    2.1415324 
H     3.3736835   -0.0000878   -0.5512769 
C     1.1861750   -0.0002963   -2.1850035 
C    -1.2449184    0.0001905   -0.7665348 
C    -0.0138647   -0.0000108   -2.9325139 
C    -1.2416087    0.0000920   -2.1389828 
H     2.1343960   -0.0004388   -2.7335527 
O    -0.0721649    0.0002803   -4.2289019 
H    -2.1851203    0.0002339   -2.6939688 
H    -2.1934505    0.0004141   -0.2194661 
C     3.6520444    0.0000881    3.5139806 
C     2.4243010   -0.0000102    4.3075120 
H     4.6038883    0.0003780    1.5944650 
H     0.2760419   -0.0004246    4.1085555 
O     2.4826047    0.0002669    5.6039027 
H     4.5955571    0.0002211    4.0689649 
