36
Energy =
C     0.0186751   -0.8052825   -0.0137973 
C     0.0667106   -0.6368500    1.3985462 
C     1.2060215   -0.2145464    2.1082645 
C     2.4413860    0.0844742    1.4123739 
C     2.4141157   -0.0815404   -0.0269867 
C     1.2417195   -0.5079506   -0.6776099 
H    -0.8616416   -0.8580460    1.9338305 
C     1.1504732   -0.0641619    3.6421920 
O     3.5251322    0.4850465    2.0508112 
C     3.6871712    0.2173080   -0.8443384 
H     1.2312341   -0.6300203   -1.7650391 
O    -1.0698632   -1.2040060   -0.6553526 
C     3.5131928   -0.0023487   -2.3581158 
C     4.0972116    1.6932637   -0.6345153 
C     4.8313293   -0.7083463   -0.3700987 
C     2.1975118   -1.0007258    4.2885241 
C     1.4627312    1.4009904    4.0264384 
C    -0.2204136   -0.4181081    4.2462896 
H     5.0445497    1.9170875   -1.1545520 
H     3.3208930    2.3640008   -1.0358929 
H     4.2133029    1.8833998    0.4407034 
H     5.7740017   -0.4696735   -0.8920773 
H     4.9672302   -0.5833931    0.7124980 
H     4.5818351   -1.7604636   -0.5817403 
H     4.4608026    0.2299540   -2.8700088 
H     3.2509394   -1.0443278   -2.5958178 
H     2.7348256    0.6499240   -2.7827418 
H     2.2268373   -0.8636403    5.3831495 
H     1.9449183   -2.0534095    4.0832852 
H     3.1852059   -0.7804578    3.8621738 
H     1.4965854    1.5226914    5.1227412 
H     2.4309518    1.6858774    3.5939652 
H     0.6822037    2.0718220    3.6329687 
H    -0.1807824   -0.2868575    5.3396362 
H    -1.0212121    0.2311925    3.8605998 
H    -0.5013690   -1.4628762    4.0446824 
