18
Energy =
C    -0.0253207    0.0000006    0.0053812 
C     0.0198159   -0.0000654    1.4233599 
C     1.2155501   -0.0000243    2.1247854 
C     2.4447868    0.0000626    1.4153808 
C     2.4354779    0.0000604    0.0290977 
C     1.2301764   -0.0000077   -0.7193876 
H    -0.9395716   -0.0001854    1.9477542 
H     1.2142375   -0.0000970    3.2176173 
H     3.3916637    0.0001066    1.9611916 
H     3.3696580    0.0001445   -0.5391230 
C     1.2788907   -0.0000963   -2.1783930 
C    -1.3132248    0.0000875   -0.6816744 
C     0.0092451   -0.0000510   -2.8009907 
C    -1.2182240    0.0000830   -2.0924571 
O     2.4153987   -0.0002487   -2.8347262 
O    -2.4492199    0.0001998   -0.0241321 
H    -0.0081522    0.0001241   -3.8977283 
H    -2.1592807   -0.0000935   -2.6559340 
