28
Energy =
C    -1.3196642    0.0001653   -0.7089571 
C    -0.0403538    0.0000254   -0.0418583 
C     1.2383823    0.0000732   -0.7612181 
C     1.2778009    0.0000070   -2.2110536 
C    -0.0199694    0.0000356   -2.8694457 
C    -1.2754330    0.0000833   -2.1467215 
C     2.4310046    0.0001290    0.0604362 
C     2.3744057    0.0000401    1.4499103 
C     1.1178849   -0.0001904    2.1155931 
C    -0.0460435   -0.0001767    1.3848879 
C    -2.4870527    0.0000414   -2.8975332 
C    -2.4976059   -0.0000836   -4.2791559 
C    -1.2641420   -0.0000634   -4.9914332 
C    -0.0711938   -0.0000386   -4.2903061 
O     2.3657763   -0.0001701   -2.9211893 
O    -2.4512897    0.0003857   -0.0508234 
H    -1.0232639   -0.0003061    1.8716192 
H     1.0933829   -0.0002750    3.2081697 
H     3.2871141    0.0001088    2.0417934 
O     3.6403787    0.0002833   -0.5989446 
H     0.8864417   -0.0000278   -4.8167150 
H    -1.2625514   -0.0000274   -6.0841094 
H    -3.4446834   -0.0001602   -4.8247082 
H    -3.4206586    0.0001123   -2.3293031 
C     4.8347721    0.0000476    0.1861111 
H     5.6604506    0.0004180   -0.5357810 
H     4.9082302    0.8977032    0.8235828 
H     4.9083047   -0.8981400    0.8228124 
