35
Energy =
O     4.2398673   -0.6708319    0.5546809 
C     2.9743390   -0.6700291    0.2273405 
C     2.1219128   -1.8089113    0.4636590 
C     0.7349426   -1.8311470    0.0427194 
C    -0.0268443   -3.0002494    0.3125132 
C     0.5076383   -4.1002971    0.9593738 
C     1.8730087   -4.0821708    1.3642812 
C     2.6449474   -2.9633081    1.1150288 
C     0.1028459   -0.7215950   -0.6492034 
O    -1.0973212   -0.8223217   -1.1242412 
C     0.9198089    0.4673444   -0.7683197 
C     2.3361251    0.4672412   -0.3879180 
C     3.1234706    1.6269337   -0.6451734 
C     2.5937261    2.7724239   -1.1993816 
C     1.2020125    2.8245263   -1.4889817 
C     0.4161999    1.7115685   -1.2675524 
O    -0.9460407    1.8786309   -1.5747536 
C    -1.8534847    1.8010538   -0.5493387 
C    -1.4930603    1.8881810    0.8030327 
C    -2.4904033    1.8570449    1.7825954 
C    -3.8407156    1.7559428    1.4307513 
C    -4.1895027    1.6856788    0.0743057 
C    -3.2038047    1.7049401   -0.9126459 
H    -1.0702948   -2.9928839   -0.0118675 
H    -0.1115015   -4.9778329    1.1605163 
H     2.3046433   -4.9490606    1.8707366 
H     3.6947973   -2.9284854    1.4165384 
H     4.1802709    1.5688612   -0.3757403 
H     3.2206555    3.6466453   -1.3875653 
H     0.7288475    3.7359823   -1.8579767 
H    -0.4416215    1.9609816    1.0775455 
H    -2.2039137    1.9180888    2.8345778 
H    -4.6124933    1.7342023    2.2015295 
H    -5.2385130    1.6062590   -0.2175139 
H    -3.4606452    1.6340923   -1.9703536 
