30
Energy =
C    -2.5758631   -2.5251565   -0.2022252 
C    -2.1785128   -1.0635850   -0.1892055 
C    -3.2060117   -0.1390354   -0.2496018 
C    -2.9535700    1.2541951   -0.2379281 
C    -1.6723147    1.7580965   -0.1029284 
C    -1.5254298    3.2654408   -0.1301970 
C    -0.5537518    0.8478212    0.0186456 
C    -0.8081834   -0.6069166   -0.0946607 
C     0.2838427   -1.5624825   -0.1105770 
O     0.1194260   -2.8467698   -0.2742498 
C     1.6138031   -1.0207185    0.0570521 
C     1.8548863    0.3922262    0.2360015 
C     3.1999150    0.8283535    0.4032165 
C     4.2685730   -0.0490961    0.3940294 
C     4.0309142   -1.4428315    0.2175407 
C     2.7353807   -1.8978340    0.0545752 
C     0.7834855    1.3627041    0.2462187 
O     1.0464473    2.6230144    0.4589668 
H    -2.1898249   -3.0504496   -1.0855490 
H    -2.1626135   -3.0670423    0.6588471 
H    -3.6750804   -2.6071554   -0.1853491 
H    -4.2386219   -0.4937950   -0.3158801 
H    -3.7922253    1.9496363   -0.3371043 
H    -0.7956858    3.5886474   -0.8843694 
H    -2.5019064    3.7255872   -0.3540728 
H    -1.1505035    3.6619555    0.8220412 
H     3.3574170    1.9013784    0.5373636 
H     5.2890535    0.3211332    0.5201103 
H     4.8683700   -2.1449720    0.2113765 
H     2.5286847   -2.9621496   -0.0821868 
