30
Energy =
C    -3.7131911    0.1136572   -1.9334914 
C    -2.4962531    0.1347993   -1.0412892 
C    -1.2387936   -0.1521739   -1.5422251 
C    -0.0541986   -0.1486685   -0.7526868 
C    -0.1859815    0.1740939    0.6554734 
C    -1.4903979    0.4655457    1.1454865 
C    -2.6269952    0.4565422    0.3564750 
C    -3.9817948    0.7762593    0.9394063 
C     0.9443098    0.2069179    1.5528669 
O     0.8227676    0.4970892    2.8218951 
C     2.2163525   -0.1029748    0.9474672 
C     2.3490059   -0.4268708   -0.4687972 
C     3.6519828   -0.7166187   -0.9671157 
C     4.7753026   -0.7003826   -0.1621473 
C     4.6454223   -0.3838418    1.2231899 
C     3.3977747   -0.0970710    1.7439123 
C     1.2170321   -0.4601154   -1.3621062 
O     1.3324101   -0.7506603   -2.6315511 
H    -4.2199346    1.0928834   -1.9587378 
H    -4.4659574   -0.6128274   -1.5839398 
H    -3.4419459   -0.1524431   -2.9644853 
H    -1.1193868   -0.3990221   -2.6015409 
H    -1.5702946    0.7073630    2.2095930 
H    -3.9067147    0.9998456    2.0124907 
H    -4.6890247   -0.0612547    0.8171064 
H    -4.4464486    1.6453188    0.4443608 
H     3.7304002   -0.9565426   -2.0307541 
H     5.7587112   -0.9276087   -0.5811629 
H     5.5292723   -0.3690528    1.8656543 
H     3.2767689    0.1480138    2.8023534 
