32
Energy =
C     0.1466100    0.1766431   -4.1545388 
C     0.1250214    0.1342258   -2.7300444 
C    -1.1530319   -0.1129102   -2.0846889 
C    -2.3038907   -0.2929614   -2.9051116 
C    -2.2420640   -0.2457704   -4.2844007 
C    -0.9881280   -0.0081513   -4.9217477 
C    -1.2737563   -0.1683385   -0.6542992 
C    -0.0413863    0.0154097    0.0838991 
C     1.2562032    0.2432317   -0.5582000 
C     1.3594341    0.3437142   -2.0019243 
C     2.3877581    0.3839671    0.3230483 
C     2.2642005    0.3296262    1.7128986 
C     0.9910890    0.1386703    2.3121676 
C    -0.1119949   -0.0207182    1.4993182 
O    -2.4175898   -0.3696230   -0.0565139 
O     2.4670826    0.6048777   -2.6401456 
O     3.6789596    0.6023022   -0.1428412 
C     4.3086670   -0.5824228   -0.6541254 
H    -1.0992474   -0.1815812    1.9374933 
H     0.8824213    0.1042608    3.3955646 
O     3.4343454    0.4631007    2.4421626 
H     1.1152116    0.3613372   -4.6254848 
H    -0.9276395    0.0267991   -6.0123928 
H    -3.1437544   -0.3891637   -4.8848092 
H    -3.2524066   -0.4726317   -2.3925286 
H     5.3501048   -0.3140335   -0.8787728 
H     4.2957537   -1.3849647    0.1045962 
H     3.8054668   -0.9061607   -1.5784714 
C     3.3338744    0.3917783    3.8669298 
H     4.3566454    0.5132244    4.2431889 
H     2.7011533    1.1980868    4.2749117 
H     2.9380486   -0.5818238    4.2016477 
