32
Energy =
C    -0.1062189   -0.0105185   -4.3335573 
C     0.0102933   -0.0215214   -2.8905693 
C    -1.2462375   -0.0084682   -2.1486058 
C    -2.4903880    0.0041490   -2.8479246 
C    -2.5446330    0.0080825   -4.2208460 
C    -1.3426162    0.0021383   -4.9760834 
C    -1.2915712   -0.0087517   -0.7112982 
C    -0.0255997   -0.0082827   -0.0292506 
C     1.2469282   -0.0212022   -0.7431239 
C     1.3007704   -0.0493603   -2.2038849 
C     2.4363232   -0.0098239    0.0822496 
C     2.3712551    0.0029174    1.4741875 
C     1.1144315    0.0083692    2.1341739 
C    -0.0454803    0.0041529    1.3976375 
O    -2.4284505   -0.0056668   -0.0558983 
O     2.4186156   -0.0988745   -2.8477290 
O     3.6567241   -0.0066849   -0.5575367 
C     4.8398394    0.0139391    0.2443406 
H    -1.0265991    0.0110691    1.8758788 
H     1.0851506    0.0181934    3.2267555 
H     3.2810057    0.0116599    2.0700777 
O     1.0597808   -0.0074540   -5.0675649 
H    -1.4012026    0.0105555   -6.0621966 
H    -3.5040631    0.0180971   -4.7446250 
H    -3.3968757    0.0114759   -2.2399388 
H     5.6746786    0.0152018   -0.4670998 
H     4.8966060    0.9188964    0.8731953 
H     4.9153619   -0.8767313    0.8913259 
C     0.9614188    0.0144666   -6.4932391 
H     1.9960404    0.0156140   -6.8573939 
H     0.4400212   -0.8759627   -6.8847794 
H     0.4469845    0.9203148   -6.8577400 
