32
Energy =
C    -1.3125841   -0.0002281   -0.6664797 
C    -0.0638281   -0.0001985    0.0349325 
C     1.1648037   -0.0001404   -0.7402131 
C     1.0564280   -0.0005749   -2.1570758 
C    -0.1580153   -0.0007706   -2.8118003 
C    -1.3623983   -0.0003924   -2.0456393 
C     2.4703892    0.0003281   -0.1196446 
C     2.4598093    0.0003451    1.3259093 
C     1.2260027    0.0000960    2.0928922 
C    -0.0705163   -0.0001296    1.4723931 
C     1.3112261   -0.0000113    3.5225270 
C     2.5298986    0.0000297    4.1700472 
C     3.7453036    0.0003513    3.4213460 
C     3.6868044    0.0006273    2.0427972 
O     3.5736081    0.0007489   -0.8119213 
O    -1.1838445   -0.0003232    2.1710925 
H     0.3645430   -0.0000785    4.0631436 
H     4.6074302    0.0009311    1.4535708 
H     4.6972946    0.0005273    3.9562551 
O     2.7003391   -0.0002031    5.5446427 
H    -2.2129353   -0.0001373   -0.0520261 
O    -2.5239943   -0.0001814   -2.8000666 
H    -0.2233138   -0.0012143   -3.9017427 
H     1.9888387   -0.0007446   -2.7271402 
C     1.5139376   -0.0004001    6.3449110 
H     1.8518785   -0.0001558    7.3877248 
H     0.9009220    0.8967392    6.1554429 
H     0.9014097   -0.8979155    6.1556942 
C    -3.7620059    0.0006133   -2.0825440 
H    -4.5526668    0.0005170   -2.8419109 
H    -3.8597547   -0.8964502   -1.4482479 
H    -3.8590645    0.8983956   -1.4491692 
