48
Energy =
C    -4.3768753    2.6195895    1.0676177 
C    -3.3130806    1.5886005    0.7497626 
C    -1.9591590    1.8522053    0.9489810 
C    -1.5233839    3.2617360    1.3121639 
C    -0.9730325    0.8327694    0.6985382 
C    -1.3957584   -0.4241135    0.0907144 
C    -2.7891742   -0.6089098   -0.2203175 
C    -3.2379193   -1.7769915   -1.0816815 
C    -3.7322655    0.3413839    0.1665478 
C    -5.2092455    0.1307709   -0.0982294 
C    -0.4282214   -1.4834005   -0.1186068 
O    -0.7835133   -2.7399740   -0.1860327 
C     0.9625141   -1.0806215   -0.1840416 
C     1.3849737    0.1692965    0.4376291 
C     2.7847653    0.5066619    0.4359981 
C     3.2379913    1.9021577    0.8290636 
C     3.7301765   -0.4031331   -0.0338410 
C     5.2125249   -0.0944933    0.0179885 
C     3.3123823   -1.6321666   -0.6562691 
C     4.3811915   -2.5431677   -1.2245457 
C     1.9571721   -1.9288721   -0.7886015 
C     1.5346390   -3.0842569   -1.6802480 
C     0.4077116    1.0066795    1.1046990 
O     0.7445471    1.8319100    2.0615584 
H    -3.9698927    3.5028514    1.5705549 
H    -5.1506027    2.2011352    1.7318503 
H    -4.9071479    2.9668451    0.1632793 
H    -2.1204187    4.0066020    0.7634047 
H    -1.6348821    3.4781132    2.3874677 
H    -0.4636932    3.4075097    1.0848901 
H    -3.6950916   -2.5891871   -0.4918426 
H    -2.3841220   -2.2258592   -1.5967850 
H    -3.9857210   -1.4495236   -1.8207749 
H    -5.4494172   -0.9164685   -0.3138191 
H    -5.5743495    0.7330444   -0.9501728 
H    -5.8178679    0.4287670    0.7687770 
H     3.6474998    1.9437077    1.8519432 
H     2.3947359    2.5983596    0.8157449 
H     4.0231080    2.2629151    0.1462584 
H     5.6316199    0.1251242   -0.9806829 
H     5.7844727   -0.9512053    0.4063733 
H     5.4399366    0.7610523    0.6632129 
H     4.9180074   -2.0823931   -2.0729063 
H     3.9763367   -3.4994279   -1.5724699 
H     5.1485625   -2.7754115   -0.4693721 
H     2.1784934   -3.1431678   -2.5712734 
H     1.5879633   -4.0593127   -1.1685603 
H     0.4932100   -2.9676307   -1.9936446 
