23
Energy =
C    -1.3351234   -0.0002105   -0.6769579 
C    -0.0453119   -0.0001556   -0.0165653 
C     1.2113777   -0.0000878   -0.7451422 
C     1.2669416   -0.0000542   -2.1946520 
C    -0.0220215   -0.0000929   -2.8463047 
C    -1.2777042   -0.0001005   -2.1088425 
C     2.4217049   -0.0000152    0.0008258 
C     2.4369363    0.0000213    1.3835134 
C     1.2065433    0.0000566    2.0984391 
C     0.0102575   -0.0000677    1.4064187 
C    -2.4628785    0.0000762   -2.8982146 
C    -2.4036723    0.0001151   -4.2731433 
N    -1.2197386    0.0000368   -4.9867308 
C    -0.1032618   -0.0000730   -4.2608616 
O     2.3880541    0.0000958   -2.8485793 
O    -2.4596324   -0.0003126   -0.0145809 
H    -0.9444678   -0.0000114    1.9378944 
H     1.2107138    0.0002788    3.1910800 
H     3.3851292    0.0001334    1.9261309 
H     3.3544704    0.0000281   -0.5686207 
H     0.8428553   -0.0001330   -4.8142933 
H    -3.3177631    0.0002545   -4.8741474 
H    -3.4264489    0.0002178   -2.3830178 
