24
Energy =
C    -1.5762926   -0.0000805   -0.2590910 
C    -0.1109502   -0.0002222    0.0182939 
C     0.0612989   -0.0001095    1.4289718 
C    -1.2292448    0.0000996    2.0551593 
C    -2.2580739    0.0004004    1.0116402 
C     1.2789323   -0.0001335    2.0996082 
C     2.4569882   -0.0002142    1.2610249 
C     2.3270382   -0.0002758   -0.1215481 
C     1.0349643   -0.0003070   -0.7555463 
C    -1.2446433   -0.0000112    3.4542957 
C    -0.0048318   -0.0001595    4.1667818 
C     1.2356365   -0.0000854    3.5416126 
O    -3.5559423    0.0007913    1.2309562 
O    -2.0957118   -0.0000983   -1.4546081 
O     3.6564112   -0.0001477    1.9363709 
H     3.2141297   -0.0002657   -0.7539182 
H     0.9834730   -0.0003703   -1.8481623 
H     2.1567458   -0.0001065    4.1244868 
H    -0.0379180   -0.0002564    5.2604141 
H    -2.1877030    0.0000823    4.0079330 
C     4.8558154    0.0002818    1.1549427 
H     5.6834628    0.0000567    1.8731660 
H     4.9194674   -0.8979222    0.5183986 
H     4.9192413    0.8990538    0.5191879 
