12
Energy =
C    -0.0945634    0.0000536   -0.0546737 
C     0.0213503    0.0001257    1.3673691 
C     1.2298586   -0.0000755    2.0651816 
C     2.5194225   -0.0000040    1.4546865 
C     2.4035071   -0.0000062    0.0326457 
C     1.1950097    0.0000048   -0.6651617 
F    -1.1471689    0.0003466    2.1049372 
F     1.1764442   -0.0004262    3.4461509 
O     3.6489172    0.0001693    2.1076314 
F     3.5720216    0.0003362   -0.7049110 
F     1.2484164   -0.0003964   -2.0461260 
O    -1.2239914   -0.0001279   -0.7077325 
