18
Energy =
C    -0.0228356    0.0000808    0.0011924 
C     0.0178292    0.0000901    1.4189881 
C     1.2136970    0.0000772    2.1192833 
C     2.4409906   -0.0000788    1.4109778 
C     2.4326685   -0.0000530    0.0251643 
C     1.2252321    0.0000302   -0.7192612 
H    -0.9406335    0.0001427    1.9430225 
H     1.2114363    0.0001526    3.2116933 
H     3.3880302   -0.0002827    1.9556696 
H     3.3659888   -0.0001984   -0.5425685 
C     1.2934669    0.0000991   -2.1783644 
C    -1.3206535   -0.0000096   -0.6690456 
C     0.0167684   -0.0000075   -2.7962983 
C    -1.2179456   -0.0000118   -2.0835548 
O     2.4211844    0.0003405   -2.8202042 
O    -2.4397019   -0.0001972   -0.0120423 
Cl    0.0105841   -0.0000707   -4.5654097 
Cl   -2.7468733   -0.0001036   -2.9737825 
