14
Energy =
C    -0.0707421   -0.0002209   -0.0091602 
C     0.0271739   -0.0000580    1.4161569 
C     1.2502110    0.0001261    2.0930551 
C     2.4956305    0.0003149    1.4091721 
C     2.3976894   -0.0000094   -0.0161633 
C     1.1746591   -0.0002984   -0.6930480 
O    -1.2008896   -0.0000250    2.0536624 
Cl    1.2613575    0.0002476    3.8622652 
O     3.7038038    0.0007269    1.9371545 
O     3.6257543    0.0000924   -0.6536773 
Cl    1.1634990   -0.0007530   -2.4622377 
O    -1.2789291   -0.0002523   -0.5371518 
H    -1.7902263   -0.0001997    1.2369254 
H     4.2151030    0.0003088    0.1630440 
