24
Energy =
C    -0.0092980    0.0637002   -0.1612796 
C    -0.0758479    0.0672032    1.3004446 
C     1.1037189    0.0633140    2.0749325 
C     2.4342472    0.0724915    1.5615660 
C     2.5010442    0.0651915    0.0998612 
C     1.3210020    0.0534840   -0.6745233 
C    -1.3821983    0.0786885    1.9733046 
H     1.0213238    0.0698027    3.1634707 
O     3.4588280    0.0745023    2.3519403 
C     3.8073012    0.0732489   -0.5728357 
H     1.4032082    0.0510601   -1.7630397 
O    -1.0345518    0.0558205   -0.9508685 
O     3.7096991   -0.1673659   -1.9343021 
O     4.9119034    0.2646259   -0.0628455 
C     4.9575676   -0.1273968   -2.6541979 
H     4.6985911   -0.3256678   -3.7001976 
H     5.4358726    0.8583614   -2.5617561 
H     5.6524192   -0.8946744   -2.2836630 
O    -1.2865165   -0.1797810    3.3313379 
O    -2.4846381    0.2869482    1.4654811 
C    -2.5330664   -0.1321832    4.0532606 
H    -2.2753598   -0.3447728    5.0967474 
H    -2.9992058    0.8603271    3.9717808 
H    -3.2375981   -0.8869283    3.6753765 
