26
Energy =
C    -0.0608491    0.6224300   -0.0235249 
C     0.0123651    0.6499811    1.4176788 
C     1.2384038    0.6196593    2.1008885 
C     2.4862085    0.6260626    1.4241825 
C     2.4129499    0.6540759   -0.0170854 
C     1.1869997    0.6204410   -0.7002852 
N    -1.2760039    0.6192702    1.9993680 
H     1.2764484    0.5740783    3.1889532 
O     3.6522788    0.5893878    2.0349111 
N     3.7016333    0.6281770   -0.5982506 
H     1.1489222    0.5756850   -1.7883618 
O    -1.2267504    0.5821878   -0.6343044 
C     4.2284651    0.9231507   -1.8125909 
H     4.3876766    0.4582170    0.1561219 
O     5.4650977    0.8092999   -2.0047113 
C     3.3175177    1.3969718   -2.9218728 
H     2.5845339    2.1310614   -2.5599833 
H     3.9351773    1.8417101   -3.7099957 
H     2.7572258    0.5530746   -3.3507175 
C    -1.8033020    0.9156846    3.2131729 
H    -1.9618912    0.4451442    1.2459023 
O    -3.0391784    0.7963432    3.4067764 
C    -0.8937733    1.3978373    4.3200269 
H    -0.1623907    2.1316698    3.9544055 
H    -1.5127955    1.8452915    5.1055625 
H    -0.3316523    0.5576335    4.7537283 
