16
Energy =
C    -0.0717325   -0.0247422   -0.0433238 
C    -0.0181495   -0.0076498    1.3920148 
C     1.2137126   -0.0130447    2.0646007 
C     2.4966301   -0.0247255    1.4433395 
C     2.4430108   -0.0075657    0.0079798 
C     1.2111620   -0.0129649   -0.6645944 
N    -1.2713353    0.0653175    2.0616509 
Cl    1.1923572   -0.0437730    3.8477789 
O     3.6463926   -0.0520836    2.0741158 
N     3.6962049    0.0654104   -0.6616621 
Cl    1.2324979   -0.0435558   -2.4477499 
O    -1.2215125   -0.0520744   -0.6741241 
H     4.4114112   -0.2106652    0.0212413 
H     3.7393158   -0.5365601   -1.4856230 
H    -1.9865455   -0.2107296    1.3787401 
H    -1.3144542   -0.5366509    2.8856125 
