26
Energy =
C    -0.1910541   -0.0065395    0.2767347 
C     0.0420143    0.0002437    1.6875383 
C     1.3347554    0.0057540    2.2266830 
C     2.5158965    0.0050792    1.4410158 
C     2.3147508   -0.0003617    0.0037345 
C     0.9956842   -0.0061548   -0.5140974 
H    -0.8293541    0.0005293    2.3525500 
H     1.4709881    0.0102442    3.3145253 
O     3.7219689    0.0090443    2.0192247 
C     3.4792882   -0.0004444   -0.8836589 
H     0.8476428   -0.0116983   -1.5959364 
O    -1.3977906   -0.0130057   -0.2492260 
C     3.6749879    0.0016213   -2.2822819 
C     5.0869587    0.0005029   -2.4934850 
C     5.7250215   -0.0019565   -1.2519779 
N     4.7394117   -0.0026588   -0.3038939 
H     4.7128361    0.0006107    0.7617995 
C     7.1788600   -0.0039508   -0.8893475 
H     5.5831076    0.0016109   -3.4633130 
C     2.6523881    0.0054397   -3.3828227 
H     3.1499090    0.0131662   -4.3638067 
H     1.9960449   -0.8800294   -3.3536394 
H     1.9909719    0.8865862   -3.3419161 
H     7.3056242   -0.0058677    0.2023466 
H     7.7010973   -0.8895199   -1.2855975 
H     7.7029694    0.8817548   -1.2827986 
