26
Energy =
C    -0.1884732   -0.0013263    0.2134828 
C     0.0684013    0.0004534    1.6284217 
C     1.3558991    0.0019251    2.1622184 
C     2.5350605    0.0014552    1.3615142 
C     2.3062584   -0.0003502   -0.0674357 
C     0.9854817   -0.0017605   -0.5865802 
H    -0.7988697    0.0008250    2.2985987 
H     1.4983987    0.0033048    3.2486264 
O     3.7400988    0.0026400    1.9186577 
C     3.4419519   -0.0005214   -0.9761782 
H     0.8460043   -0.0032740   -1.6731891 
O    -1.4044171   -0.0023475   -0.2800203 
C     3.5438009    0.0005121   -2.3756007 
C     4.9344768    0.0003235   -2.6992988 
C     5.6542900   -0.0009912   -1.4505550 
N     4.7237103   -0.0015736   -0.4435040 
H     4.7518736   -0.0006313    0.6137541 
C     7.0531515   -0.0015736   -1.3985383 
C     5.6751660    0.0013006   -3.9008411 
H     2.7159024    0.0015226   -3.0784967 
C     7.7552372   -0.0007164   -2.6092380 
C     7.0707187    0.0007000   -3.8450490 
H     7.5781568   -0.0026716   -0.4410850 
H     8.8466813   -0.0011165   -2.5978071 
H     7.6465059    0.0013797   -4.7730437 
H     5.1614476    0.0025123   -4.8653031 
