34
Energy =
C    -0.0983197   -0.1774462    0.0255903 
C     0.0957927   -0.0593819    1.4530433 
C     1.3478925    0.0853619    2.0682407 
C     2.5785593    0.1783949    1.3432838 
C     2.3844398    0.0601805   -0.0841683 
C     1.1323541   -0.0845554   -0.6993589 
Cl    1.4821009    0.1085089    3.8198850 
O     3.7374227    0.3238563    1.8826740 
Cl    0.9981789   -0.1077348   -2.4509868 
O    -1.2571449   -0.3227005   -0.5139448 
N     3.5834758    0.0351005   -0.8592535 
C     3.9995293   -0.9646839   -1.7331631 
C     5.2679475   -0.6513750   -2.1265985 
N     5.6158293    0.5252338   -1.4803558 
C     4.5906032    0.9165325   -0.7105543 
H     4.5680817    1.7929702   -0.0784134 
C     6.8967317    1.2187189   -1.6088731 
H     5.9482052   -1.1557686   -2.8013289 
H     3.3604062   -1.7981716   -1.9902585 
H     6.8699717    2.1253904   -0.9976247 
H     7.7028709    0.5623546   -1.2612129 
H     7.0617673    1.4863456   -2.6588085 
N    -1.1032523   -0.0342913    2.2281271 
C    -1.5192785    0.9654772    3.1020765 
C    -2.7878334    0.6523753    3.4952339 
N    -3.1358493   -0.5240601    2.8487493 
C    -2.1105284   -0.9155156    2.0791652 
H    -2.0878928   -1.7920411    1.4471687 
C    -4.4166798   -1.2176493    2.9774774 
H    -3.4681034    1.1567896    4.1699379 
H    -0.8800985    1.7989124    3.3592078 
H    -4.3918463   -2.1215783    2.3620915 
H    -4.5793587   -1.4898442    4.0266154 
H    -5.2233026   -0.5593639    2.6345926 
