42
Energy =
C     0.8665495    0.0175714    0.0339109 
C     1.0601792    0.2217912    1.4563474 
C     2.0441611    1.0767773    2.0051098 
C     2.9859152    1.7732480    1.1799618 
C     2.7887055    1.5713222   -0.2447457 
C     1.8042768    0.7173694   -0.7924780 
C     0.1989101   -0.4932013    2.3266758 
C     2.1760911    1.2571129    3.4892633 
O     3.9337688    2.5013903    1.6589007 
C     3.6547608    2.2853533   -1.1113632 
C     1.6578523    0.5335129   -2.2746703 
O    -0.0771000   -0.7165988   -0.4491327 
N     3.1089439    0.2614822    4.0697655 
H     2.5981547    2.2465632    3.7057072 
H     1.2233235    1.1425847    4.0190453 
H     2.5810960    0.7476461   -2.8246883 
H     1.3337912   -0.4911384   -2.4951194 
N     0.6200163    1.4385733   -2.8284462 
N    -0.4851681   -1.0872875    3.0693074 
N     4.3468114    2.8809091   -1.8451045 
C     4.4669596    0.2046534    3.8110699 
C     4.9469266   -0.8985693    4.4626387 
N     3.8723161   -1.4948173    5.1000641 
C     2.7667253   -0.7768299    4.8452648 
H     1.7678101   -1.0010820    5.1992715 
C     3.9313834   -2.7049834    5.9207711 
H     5.9477258   -1.3067621    4.5299926 
H     4.9339439    0.9489237    3.1737131 
H     2.9238713   -2.9400145    6.2761724 
H     4.3120566   -3.5348834    5.3148496 
H     4.5944471   -2.5319993    6.7759129 
C     0.8454197    2.6232932   -3.5034870 
C    -0.3790508    3.1874758   -3.7379924 
N    -1.3253160    2.3376352   -3.1932020 
C    -0.7011620    1.2830515   -2.6448677 
H    -1.1423989    0.4613587   -2.0879091 
C    -2.7729813    2.5505370   -3.2139757 
H    -0.6553523    4.1043145   -4.2433920 
H     1.8444516    2.9569039   -3.7553161 
H    -3.2575065    1.7247562   -2.6850938 
H    -3.0063861    3.4975841   -2.7144551 
H    -3.1218011    2.5809236   -4.2524051 
