36
Energy =
C    -0.0200221    0.2514395   -0.1149911 
C    -0.0190613    0.1467927    1.3345905 
C     1.1537402   -0.0482399    2.0952624 
C     2.4555755   -0.2319926    1.5152107 
C     2.4547817   -0.1264983    0.0657130 
C     1.2819918    0.0684279   -0.6949869 
C    -1.2913480    0.2057924    1.9538961 
O     3.5128599   -0.4456452    2.1979489 
C     3.7271454   -0.1843572   -0.5535878 
O    -1.0774677    0.4639879   -0.7976692 
N     1.0906629   -0.0263073    3.5189507 
N     1.3452346    0.0470862   -2.1186647 
N    -2.3463758    0.2432043    2.4579921 
N     4.7822020   -0.2204673   -1.0576998 
C     0.4621226    0.9304637    4.3139264 
C     0.7544109    0.6273597    5.6109086 
N     1.5610384   -0.4993137    5.5952852 
C     1.7619873   -0.8756679    4.3257562 
H     2.3511160   -1.7196895    3.9965621 
C     2.1136627   -1.1645703    6.7752843 
H     0.4674242    1.1135719    6.5347469 
H    -0.1153487    1.7398241    3.8882126 
H     2.7044552   -2.0257697    6.4501629 
H     2.7537973   -0.4617711    7.3207580 
H     1.2933214   -1.4995036    7.4198364 
C     1.9743644   -0.9089817   -2.9140150 
C     1.6819819   -0.6054861   -4.2108862 
N     0.8746786    0.5206988   -4.1948172 
C     0.6734662    0.8964029   -2.9251416 
H     0.0837079    1.7398728   -2.5956224 
C     0.3219276    1.1862973   -5.3745633 
H     1.9693258   -1.0910958   -5.1349303 
H     2.5519971   -1.7183548   -2.4885488 
H    -0.2726115    2.0447054   -5.0488900 
H     1.1422109    1.5254234   -6.0170165 
H    -0.3146799    0.4822309   -5.9225045 
