48
Energy =
C    -0.1544211   -0.0536551    0.1656991 
C     0.1034325   -0.0658349    1.5779058 
C     1.4203199   -0.0158588    2.0781756 
C     2.5808086    0.0529319    1.2352809 
C     2.3229973    0.0646303   -0.1769131 
C     1.0061178    0.0151477   -0.6771970 
C    -1.0716382   -0.1523743    2.5059697 
C     1.6881086   -0.0399199    3.5596395 
O     3.7926346    0.1149072    1.7437340 
C     3.4981690    0.1492476   -1.1049473 
C     0.7382788    0.0400060   -2.1586153 
O    -1.3662328   -0.1151470   -0.3427669 
H    -0.9551050   -0.9829346    3.2277072 
O    -1.2115982    1.1008436    3.2450473 
H    -1.9744033   -0.3388620    1.9039308 
H    -1.9869627    1.0022299    3.8276342 
H     3.3821429    0.9784650   -1.8282956 
H     4.4009259    0.3364277   -0.5031053 
O     3.6376215   -1.1055368   -1.8414987 
H     4.4141509   -1.0088926   -2.4228919 
H     2.5723555   -0.6571142    3.7709718 
N     1.9949918    1.3118379    4.1016005 
H     0.8385741   -0.4063559    4.1434320 
C     1.2269176    2.0468473    4.9823938 
C     1.8683127    3.2416420    5.1717719 
N     3.0144089    3.2100768    4.3944941 
C     3.0748600    2.0303601    3.7535332 
H     3.8008183    1.6620765    3.0213032 
C     4.0022528    4.2828022    4.2889818 
H     1.6127852    4.0991543    5.7816467 
H     0.2886027    1.6701933    5.3665364 
H     4.7791824    3.9761976    3.5826421 
H     3.5138487    5.1946557    3.9265288 
H     4.4497330    4.4677326    5.2724701 
H     1.5880215    0.4060638   -2.7423440 
N     0.4302187   -1.3111641   -2.7013037 
H    -0.1454789    0.6580268   -2.3695946 
C     1.1988056   -2.0472235   -3.5807700 
C     0.5559760   -3.2410497   -3.7714076 
N    -0.5915218   -3.2078280   -2.9962619 
C    -0.6514000   -2.0280603   -2.3553109 
H    -1.3777314   -1.6589143   -1.6238720 
C    -1.5813847   -4.2789125   -2.8930077 
H     0.8113363   -4.0988918   -4.3808916 
H     2.1386297   -1.6722008   -3.9628182 
H    -2.3573816   -3.9726047   -2.1855133 
H    -2.0296788   -4.4606390   -3.8767323 
H    -1.0944988   -5.1925290   -2.5329799 
