48
Energy =
C    -0.1955085    0.1652744    0.2156525 
C    -0.0658329    0.1090029    1.6458425 
C     1.1676069   -0.1573006    2.2700931 
C     2.3818149   -0.4595388    1.5700651 
C     2.2568925   -0.3952357    0.1407752 
C     1.0478966   -0.0432878   -0.4850278 
N    -1.2332666    0.2488193    2.4446760 
O     3.5024336   -0.7487488    2.1491108 
N     3.4593828   -0.6459004   -0.5678062 
O    -1.3118558    0.3910576   -0.3880152 
C     3.7446206   -1.6019749   -1.5064572 
H     4.2926040   -0.2678082   -0.1095966 
O     4.9045988   -1.7250187   -1.9378713 
C     2.6243626   -2.4851667   -2.0029830 
H     1.7793920   -2.5390482   -1.3063392 
H     2.2561882   -2.1092886   -2.9685867 
H     3.0348118   -3.4870661   -2.1744207 
C    -2.0757698    1.3227893    2.4843680 
H    -1.5452445   -0.5568935    2.9877531 
O    -3.1503602    1.2623846    3.1113722 
C    -1.6254320    2.5686719    1.7641069 
H    -0.5539526    2.7603401    1.9190148 
H    -1.7713761    2.4146649    0.6837382 
H    -2.2192445    3.4205515    2.1109816 
N     1.2545928   -0.1188739    3.6970266 
C     0.8021005    0.8961425    4.5356992 
C     1.2010347    0.5808843    5.8021096 
N     1.8974936   -0.6143297    5.7234349 
C     1.9281322   -1.0163206    4.4437749 
H     2.4086848   -1.9080577    4.0672511 
C     2.5090701   -1.3185622    6.8497399 
H     1.0550634    1.0980835    6.7420291 
H     0.2532590    1.7475654    4.1590713 
H     2.9714215   -2.2388027    6.4808358 
H     3.2730729   -0.6800075    7.3082031 
H     1.7369486   -1.5635012    7.5877411 
N     1.0055746    0.1361649   -1.9039155 
C     0.0375223   -0.3732211   -2.7613297 
C     0.3732107    0.0199123   -4.0263891 
N     1.5337946    0.7696550   -3.9254790 
C     1.8973668    0.8358711   -2.6359812 
H     2.7603765    1.3600910   -2.2478391 
C     2.2403346    1.4008903   -5.0400223 
H    -0.1056335   -0.1648193   -4.9796607 
H    -0.7882922   -0.9603882   -2.3876854 
H     3.1285470    1.9087229   -4.6530423 
H     2.5389094    0.6325676   -5.7621525 
H     1.5795660    2.1290494   -5.5238776 
