44
Energy =
C    -0.0220932    0.5437634    0.1066645 
C     0.1143167    0.3650462    1.5226657 
C     1.3089069   -0.1417104    2.0688753 
C     2.4459700   -0.5453947    1.2932033 
C     2.3095960   -0.3665466   -0.1227497 
C     1.1150402    0.1403729   -0.6689403 
N    -1.0151286    0.7370170    2.3021117 
O     3.5512031   -1.0092736    1.8105573 
N     3.4389791   -0.7385567   -0.9023535 
O    -1.1275361    1.0073268   -0.4106024 
H     4.1062868   -1.1008286   -0.2075318 
C     4.0841908    0.3375857   -1.6732054 
H    -1.6827230    1.0984621    1.6071513 
C    -1.6595968   -0.3385005    3.0743632 
H     5.0528361   -0.0245007   -2.0430435 
H     3.4800945    0.6165351   -2.5484377 
H     4.2512452    1.2538015   -1.0755105 
H    -2.6290596    0.0230182    3.4426197 
H    -1.8249214   -1.2560356    2.4782235 
H    -1.0560298   -0.6150855    3.9507229 
N     0.9560830    0.1807470   -2.0941407 
N     1.4682212   -0.1812805    3.4940593 
C     0.3969432    1.2226873   -2.8223598 
C     0.4302356    0.8588713   -4.1404126 
N     1.0018594   -0.4008677   -4.1990225 
C     1.3058952   -0.7979357   -2.9527384 
H     1.7960667   -1.7226632   -2.6781418 
C     1.2410806   -1.1728534   -5.4170071 
H     0.0982076    1.3773702   -5.0311426 
H     0.0180769    2.1067031   -2.3303181 
H     1.7044083   -2.1262179   -5.1457558 
H     0.2876848   -1.3585030   -5.9248797 
H     1.9113440   -0.6125014   -6.0791910 
C     2.0286594   -1.2222084    4.2227496 
C     1.9960721   -0.8572983    5.5405275 
N     1.4235458    0.4020453    5.5985125 
C     1.1182355    0.7978267    4.3521319 
H     0.6269376    1.7218512    4.0771318 
C     1.1846335    1.1748588    6.8160343 
H     2.3291676   -1.3747983    6.4314405 
H     2.4080664   -2.1062371    3.7311615 
H     0.7222225    2.1284947    6.5441801 
H     0.5138223    0.6154340    7.4784487 
H     2.1381123    1.3599723    7.3239393 
