30
Energy =
C    -0.0036463   -0.0001232    0.0063055 
C     0.0337435   -0.0001533    1.4395309 
C     1.2229743    0.0001698    2.1368561 
C     2.4659875    0.0003313    1.4372925 
C     2.4682516    0.0001611    0.0552057 
H    -0.9175570   -0.0003645    1.9800358 
H     1.2156678    0.0002562    3.2293815 
H     3.4051708    0.0004606    1.9943962 
H     3.4083513    0.0001920   -0.5018470 
C    -1.2078865   -0.0001445   -0.7115666 
C    -1.2114392   -0.0001136   -2.1218349 
C     0.0308758   -0.0001144   -2.8598627 
C     1.3131841   -0.0001770   -2.1492348 
C     1.2645342   -0.0000506   -0.6999260 
H    -2.1650965   -0.0001263   -0.1866893 
O     2.4274412   -0.0003594   -2.7889987 
C    -2.4938217   -0.0001507   -2.8323701 
C    -2.4452790   -0.0000331   -4.2816858 
C    -1.1770705   -0.0000952   -4.9879365 
C     0.0271877   -0.0001356   -4.2701102 
O    -3.6079154   -0.0002913   -2.1923297 
H     0.9842799   -0.0001347   -4.7952487 
C    -1.2144211   -0.0000819   -6.4211753 
C    -2.4036318    0.0001892   -7.1185142 
C    -3.6466622    0.0002552   -6.4189629 
C    -3.6489784    0.0001046   -5.0368871 
H    -0.2631070   -0.0001928   -6.9616441 
H    -2.3963130    0.0003328   -8.2110402 
H    -4.5858374    0.0003121   -6.9760806 
H    -4.5891998    0.0000771   -4.4800377 
