46
Energy =
C    -0.0796190   -0.0345910   -0.1298114 
C    -0.3445942   -0.0224022    1.3125225 
C     0.7918711    0.0782104    2.1711110 
C     2.1044581    0.1432529    1.6535653 
C     2.3491345    0.1237203    0.2903832 
C     1.2628262    0.0347397   -0.6211158 
O    -1.5505594   -0.1126921    1.7769857 
C     0.5499010    0.1225986    3.6503284 
H     2.9414490    0.2177423    2.3557129 
H     3.3614965    0.1825734   -0.1099420 
C     1.5279419    0.0224543   -2.0634308 
C    -1.1658990   -0.1236103   -1.0413583 
C     0.3915076   -0.0788126   -2.9219977 
C    -0.9210811   -0.1438888   -2.4045105 
O     2.7339313    0.1129371   -2.5277142 
C     0.6337025   -0.1228611   -4.4011557 
H    -1.7580045   -0.2187557   -3.1067083 
H    -2.1783432   -0.1826295   -0.6412581 
H    -0.2327241   -0.5127488   -4.9485115 
N     0.9038237    1.2256884   -4.9832100 
H     1.5154910   -0.7353639   -4.6367841 
C     0.1500747    1.8833074   -5.9356123 
C     0.7354664    3.1046045   -6.1381256 
N     1.8354796    3.1654014   -5.3012228 
C     1.9213184    2.0171310   -4.6088831 
H     2.6465223    1.7278704   -3.8472529 
C     2.7568614    4.2957428   -5.1858390 
H     0.4688687    3.9223070   -6.7960017 
H    -0.7273979    1.4349643   -6.3846786 
H     3.5152158    4.0553548   -4.4352454 
H     3.2382030    4.4749217   -6.1540359 
H     2.2008111    5.1880570   -4.8763134 
H     1.4165922    0.5124000    4.1973210 
H    -0.3316006    0.7356103    3.8858206 
N     0.2793551   -1.2254962    4.2332642 
C     1.0261536   -1.8777271    5.1947863 
C     0.4416783   -3.0995124    5.3969507 
N    -0.6509472   -3.1659196    4.5508250 
C    -0.7331489   -2.0205968    3.8531979 
H    -1.4539381   -1.7350379    3.0859785 
C    -1.5684251   -4.2990093    4.4313542 
H     0.7045053   -3.9142120    6.0600467 
H     1.8986127   -1.4256340    5.6498149 
H    -2.3249775   -4.0603353    3.6784030 
H    -1.0086800   -5.1894883    4.1231384 
H    -2.0524977   -4.4802652    5.3977851 
