46
Energy =
C    -0.0211582    0.0581916    0.0033421 
C     0.0234209    0.3556045    1.4538649 
C     1.3136269    0.4695939    2.0384768 
C     2.4827931    0.3777143    1.2847307 
C     2.4692810    0.1170651   -0.0854727 
C     1.2065589   -0.0590627   -0.7523730 
O    -1.0422153    0.5196982    2.1589336 
H     1.3580894    0.6747505    3.1115753 
H     3.4492486    0.5198604    1.7800352 
C     3.7944008    0.1241188   -0.7890290 
C     1.1620051   -0.3564103   -2.2029431 
C    -1.2838927   -0.1172656   -0.6636899 
C    -0.1282228   -0.4700310   -2.7876196 
C    -1.2974026   -0.3775180   -2.0339508 
O     2.2276692   -0.5203420   -2.9079568 
H    -0.1727287   -0.6747922   -3.8607920 
H    -2.2638913   -0.5188723   -2.5294272 
C    -2.6091016   -0.1233829    0.0396583 
H     3.9289094   -0.7183544   -1.4726079 
N     3.9779783    1.3390412   -1.6406160 
H     4.6104917    0.1450662   -0.0510240 
H    -3.4251340   -0.1431426   -0.6984424 
N    -2.7941532   -1.3386101    0.8905325 
H    -2.7428074    0.7188489    0.7236990 
C    -3.7884376   -1.5244267    1.8282847 
C    -3.5757584   -2.7470477    2.4061173 
N    -2.4481652   -3.2807066    1.8087433 
C    -1.9916823   -2.4075222    0.8934676 
H    -1.1100641   -2.5308403    0.2775639 
C    -1.8468564   -4.5767441    2.1212946 
H    -4.1188845   -3.2751005    3.1801675 
H    -4.5514864   -0.7778302    2.0091748 
H    -0.9631157   -4.7159788    1.4916560 
H    -1.5534356   -4.5977735    3.1770662 
H    -2.5714626   -5.3740570    1.9202500 
C     4.9706520    1.5246368   -2.5800971 
C     4.7567067    2.7468995   -3.1582129 
N     3.6299775    3.2805910   -2.5592378 
C     3.1752446    2.4077710   -1.6427395 
H     2.2947807    2.5312980   -1.0252205 
C     3.0277800    4.5762693   -2.8715412 
H     5.2983968    3.2746900   -3.9334468 
H     5.7334321    0.7780336   -2.7620754 
H     2.1442321    4.7150016   -2.2415240 
H     3.7519760    5.3740665   -2.6709172 
H     2.7338428    4.5970008   -3.9271725 
