54
Energy =
C    -0.0108782    0.0742472    0.0212119 
C     0.0530366    0.3586997    1.4625203 
C     1.3616618    0.4326459    2.0349516 
C     2.5147320    0.3236946    1.2595187 
C     2.4680376    0.0689122   -0.1159087 
C     1.1990223   -0.0765568   -0.7666184 
O    -0.9914104    0.5465818    2.1924723 
O     1.3750110    0.6684596    3.4063797 
H     3.4959003    0.4464350    1.7223598 
C     3.7827474    0.0794812   -0.8372048 
C     1.1351395   -0.3624184   -2.2076174 
C    -1.2798285   -0.0690987   -0.6300416 
C    -0.1732659   -0.4325531   -2.7808523 
C    -1.3264334   -0.3218128   -2.0058189 
O     2.1796090   -0.5542869   -2.9366414 
O    -0.1864924   -0.6671828   -4.1524697 
H    -2.3076569   -0.4419121   -2.4692588 
C    -2.5949282   -0.0776760    0.0905504 
H     3.9056938   -0.7557961   -1.5317618 
N     3.9530696    1.3026812   -1.6830767 
H     4.6119377    0.0938934   -0.1140074 
H    -3.4237844   -0.0878933   -0.6330896 
N    -2.7693214   -1.3025571    0.9331495 
H    -2.7157765    0.7562105    0.7871429 
C    -3.7532023   -1.5011868    1.8794221 
C    -3.5261290   -2.7256316    2.4478017 
N    -2.4001013   -3.2473323    1.8366006 
C    -1.9588573   -2.3653514    0.9219841 
H    -1.0803790   -2.4755677    0.2990884 
C    -1.7861612   -4.5404231    2.1358822 
H    -4.0579045   -3.2623829    3.2237948 
H    -4.5199269   -0.7613523    2.0721186 
H    -0.8995230   -4.6632373    1.5069216 
H    -1.4946692   -4.5700748    3.1920054 
H    -2.5016382   -5.3433799    1.9246673 
C     4.9349495    1.5011079   -2.6314810 
C     4.7040093    2.7234335   -3.2028442 
N     3.5776524    3.2440625   -2.5913174 
C     3.1400531    2.3635658   -1.6735202 
H     2.2623308    2.4734250   -1.0494962 
C     2.9603002    4.5349795   -2.8929063 
H     5.2332765    3.2593654   -3.9811134 
H     5.7031623    0.7625934   -2.8233883 
H     2.0712832    4.6549717   -2.2667647 
H     3.6723467    5.3405335   -2.6799335 
H     2.6719077    4.5631073   -3.9499101 
C    -1.4611344   -0.7803099   -4.7824065 
H    -1.2595232   -0.9461249   -5.8477965 
H    -2.0408074   -1.6338893   -4.3880439 
H    -2.0613459    0.1394791   -4.6666868 
C     2.6496494    0.7877317    4.0351348 
H     2.4482061    0.9540556    5.1004796 
H     3.2536717   -0.1296625    3.9201731 
H     3.2253894    1.6432103    3.6391440 
