58
Energy =
C     0.0375796    0.0076534    0.0185692 
C     0.1606788   -0.0842199    1.4473071 
C     1.3809688   -0.0191292    2.0867340 
C     2.5795435    0.1519584    1.3445498 
C     2.4993151    0.2713071   -0.0287351 
H    -0.7265950   -0.2423348    2.0610778 
H     1.4231720   -0.1125898    3.1742354 
H     3.5440890    0.1837205    1.8545545 
H     3.3958306    0.4172246   -0.6339780 
C    -1.1910199   -0.0957463   -0.6818660 
C    -1.1966032   -0.1214638   -2.1146112 
C     0.0113906    0.1220738   -2.8790615 
C     1.2550632    0.4205014   -2.1534357 
C     1.2614194    0.2071656   -0.7179390 
C    -2.4789524   -0.0194951    0.0897624 
O     2.2998639    0.8676506   -2.7352530 
C    -2.4415656   -0.4140796   -2.8405457 
C    -2.4442763   -0.2104851   -4.2777167 
C    -1.2189133   -0.0173836   -5.0134829 
C     0.0082375    0.0904448   -4.3114668 
O    -3.4909279   -0.8496327   -2.2578995 
C     1.2980928    0.0122325   -5.0799194 
C    -1.3390263    0.0651514   -6.4430398 
C    -2.5580571   -0.0030657   -7.0844945 
C    -3.7581477   -0.1683898   -6.3435070 
C    -3.6807661   -0.2782180   -4.9692669 
H    -0.4503185    0.2185170   -7.0559336 
H    -2.5980400    0.0831306   -8.1726770 
H    -4.7216967   -0.2034452   -6.8551720 
H    -4.5787602   -0.4194368   -4.3651234 
N    -3.2795401    1.1815329   -0.2989744 
H    -3.1478648   -0.8658715   -0.0870812 
H    -2.2994419    0.0837613    1.1649271 
C    -4.6428514    1.3278569   -0.1508945 
C    -4.9743548    2.5602041   -0.6451512 
N    -3.8001280    3.1408499   -1.0925356 
C    -2.7861204    2.2841432   -0.8751647 
H    -1.7482586    2.4474819   -1.1353094 
C    -3.6815445    4.4518636   -1.7296575 
H    -5.9294435    3.0644203   -0.7256597 
H    -5.2573102    0.5468992    0.2782235 
H    -2.6219231    4.6687556   -1.8951583 
H    -4.2108844    4.4440469   -2.6896099 
H    -4.1143523    5.2154957   -1.0737939 
H     1.1209164   -0.1033967   -6.1542346 
H     1.9624622    0.8639476   -4.9113173 
N     2.1043701   -1.1801902   -4.6770023 
C     3.4691628   -1.3191743   -4.8183874 
C     3.8066863   -2.5443035   -4.3105023 
N     2.6344627   -3.1281368   -3.8619812 
C     1.6158138   -2.2801444   -4.0915747 
H     0.5780010   -2.4477585   -3.8340083 
C     2.5224437   -4.4310713   -3.2073142 
H     4.7646818   -3.0414405   -4.2211210 
H     4.0801683   -0.5386999   -5.2532765 
H     1.4628435   -4.6664903   -3.0694174 
H     2.9891110   -5.1957789   -3.8380912 
H     3.0232182   -4.3984186   -2.2325429 
