52
Energy =
C    -0.0141997    0.0285532    0.0439495 
C     0.0092799    0.0541725    1.4763159 
C     1.1974433    0.1176847    2.1731432 
C     2.4379426    0.1673861    1.4832745 
C     2.4428900    0.1702044    0.1018467 
H    -0.9303183    0.0220663    2.0292913 
H     1.1819824    0.1323028    3.2648234 
H     3.3739593    0.2106694    2.0425361 
H     3.3798202    0.2258530   -0.4551490 
C    -1.2004449   -0.0411769   -0.7104779 
C    -1.2168886   -0.0494131   -2.1328042 
C     0.0410854    0.0464256   -2.8456160 
C     1.3096993    0.1663632   -2.1021034 
C     1.2422543    0.1086640   -0.6511170 
O     2.4310275    0.3213834   -2.6870599 
C    -2.4853672   -0.1706408   -2.8763154 
C    -2.4181324   -0.1119444   -4.3272638 
C    -1.1617431   -0.0304303   -5.0223160 
C     0.0245013    0.0390115   -4.2679146 
O    -3.6064217   -0.3275260   -2.2912641 
C    -1.1851480   -0.0543752   -6.4547032 
C    -2.3732555   -0.1178330   -7.1516112 
C    -3.6137087   -0.1693258   -6.4617756 
C    -3.6187006   -0.1736297   -5.0803541 
H    -0.2455114   -0.0209837   -7.0075359 
H    -2.3578313   -0.1311126   -8.2433084 
H    -4.5496916   -0.2127955   -7.0210835 
H    -4.5557092   -0.2305480   -4.5236202 
N    -2.4310469   -0.0591861    0.0381116 
C    -2.9778162   -1.1506608    0.6912506 
C    -4.1873517   -0.7589612    1.1922209 
N    -4.3607166    0.5678158    0.8314840 
C    -3.2870739    0.9673577    0.1355995 
H    -3.1405272    1.9477674   -0.2985226 
C    -5.5246122    1.3917685    1.1536745 
H    -4.9297707   -1.2949375    1.7702787 
H    -2.4638542   -2.1024008    0.7272024 
H    -5.3822529    2.3876726    0.7238732 
H    -6.4244653    0.9327566    0.7282739 
H    -5.6273383    1.4714614    2.2419841 
N     1.2550312    0.0591464   -5.0166245 
C     1.8020757    1.1528543   -5.6657758 
C     3.0118335    0.7628631   -6.1675412 
N     3.1849724   -0.5651738   -5.8113414 
C     2.1110247   -0.9670819   -5.1173336 
H     1.9640714   -1.9491597   -4.6871409 
C     4.3487869   -1.3881851   -6.1362147 
H     3.7545629    1.3008273   -6.7433483 
H     1.2882660    2.1048023   -5.6983630 
H     4.2086560   -2.3839053   -5.7052727 
H     4.4487896   -1.4685161   -7.2247433 
H     5.2492492   -0.9279232   -5.7134743 
