52
Energy =
C     0.0819718   -0.0110680   -0.0224676 
C     0.1173488    0.0131668    1.4074046 
C     1.2978988    0.0960803    2.1089126 
C     2.5316313    0.1166327    1.4079404 
C     2.5289463    0.0956494    0.0275255 
H    -0.8341910   -0.0371908    1.9425121 
H     1.2984061    0.1132281    3.1994527 
H     3.4792980    0.1025870    1.9471235 
C    -1.1391683   -0.0920935   -0.7036663 
C    -1.1924436   -0.0721799   -2.1078452 
C     0.0167177    0.0725543   -2.8720460 
C     1.3197023    0.1997103   -2.2098878 
C     1.3361442    0.0773326   -0.7615839 
H    -2.0725899   -0.1561452   -0.1430810 
O     2.3742802    0.4172621   -2.9072962 
C    -2.4955254   -0.1994805   -2.7698141 
C    -2.5121593   -0.0766596   -4.2181030 
C    -1.2580590    0.0122318   -4.9572824 
C    -0.0367985    0.0928879   -4.2762179 
O    -3.5498562   -0.4173123   -2.0722396 
H     0.8964060    0.1573034   -4.8371475 
C    -1.2936737   -0.0109427   -6.3871846 
C    -2.4743384   -0.0931348   -7.0885821 
C    -3.7079931   -0.1145288   -6.3874639 
C    -3.7050545   -0.0947084   -5.0070437 
H    -0.3422346    0.0398480   -6.9224298 
H    -2.4749922   -0.1091783   -8.1791403 
H    -4.6557618   -0.1002566   -6.9264761 
N     3.8194408    0.0380042   -0.6074417 
C     4.8651888    0.9320092   -0.4270574 
C     5.8630350    0.5588829   -1.2814989 
N     5.4075419   -0.5561805   -1.9711046 
C     4.1646512   -0.8405703   -1.5631612 
H     3.5556381   -1.6625463   -1.9126672 
C     6.1489374   -1.2832232   -3.0000468 
H     6.8462078    0.9772405   -1.4559610 
H     4.7964009    1.7528060    0.2751363 
H     5.5429077   -2.1281158   -3.3406766 
H     6.3541675   -0.6138870   -3.8435187 
H     7.0915116   -1.6516028   -2.5796636 
N    -4.9954136   -0.0380723   -4.3716840 
C    -6.0402734   -0.9332845   -4.5511461 
C    -7.0377921   -0.5612963   -3.6958236 
N    -6.5829573    0.5542733   -3.0065858 
C    -5.3407614    0.8400559   -3.4156300 
H    -4.7324652    1.6629841   -3.0671091 
C    -7.3243315    1.2805985   -1.9771275 
H    -8.0203653   -0.9807288   -3.5205688 
H    -5.9711293   -1.7540126   -5.2533779 
H    -6.7176872    2.1243845   -1.6348588 
H    -8.2663607    1.6504483   -2.3974674 
H    -7.5306605    0.6102366   -1.1347446 
