60
Energy =
C    -0.0630284   -0.0934587   -0.0892271 
C    -0.2533193   -0.0226385    1.3618690 
C     0.9154849    0.0433347    2.1617379 
C     2.1896083    0.2052536    1.5927373 
C     2.3664728    0.3028950    0.2208136 
C     1.2482612    0.0913363   -0.6588919 
O    -1.4386045    0.0005565    1.9187152 
C     0.7547426    0.0115710    3.6522481 
H     3.0563000    0.2594183    2.2522886 
N     3.6306959    0.5661903   -0.3604267 
C     1.4385691    0.0203681   -2.1099379 
C    -1.1813137   -0.3043789   -0.9690202 
C     0.2697335   -0.0445208   -2.9098625 
C    -1.0044791   -0.2059485   -2.3408804 
O     2.6239188   -0.0037981   -2.6667476 
C     0.4302364   -0.0110980   -4.4003911 
H    -1.8712172   -0.2590793   -3.0004272 
N    -2.4455811   -0.5673346   -0.3877359 
C    -3.4332858   -1.4234174   -0.7610592 
H    -2.4400322   -0.2778979    0.6239015 
H     3.6256634    0.2759744   -1.3717921 
C     4.6173992    1.4237300    0.0123388 
O    -4.4643106   -1.5267404   -0.0554336 
C    -3.2847478   -2.2652325   -2.0115757 
H    -2.2386418   -2.5235374   -2.2219970 
H    -3.8808371   -3.1755053   -1.8756152 
H    -3.6822913   -1.7297748   -2.8861864 
O     5.6488511    1.5268060   -0.6926430 
C     4.4671057    2.2674356    1.2613844 
H     3.4205010    2.5240021    1.4714207 
H     4.8658699    1.7343769    2.1369036 
H     5.0613024    3.1786985    1.1237186 
H     1.6743277   -0.3096201    4.1554029 
N     0.4337802    1.3547817    4.2151204 
H    -0.0688404   -0.6521934    3.9457734 
C     1.2454222    2.1217080    5.0284384 
C     0.5894612    3.3028523    5.2508051 
N    -0.6086968    3.2318060    4.5632555 
C    -0.6850729    2.0441425    3.9410907 
H    -1.4723609    1.6739319    3.2879708 
C    -1.6299020    4.2788921    4.5204801 
H     0.8667030    4.1731359    5.8323892 
H     2.2059829    1.7670352    5.3807002 
H    -2.4571673    3.9371784    3.8918416 
H    -1.9930418    4.4746943    5.5356904 
H    -1.1960737    5.1917499    4.0971720 
H    -0.4892546    0.3114684   -4.9028307 
H     1.2542047    0.6525820   -4.6931094 
N     0.7500753   -1.3536239   -4.9655835 
C    -0.0577989   -2.1141294   -5.7886079 
C     0.5961797   -3.2962375   -6.0117406 
N     1.7894291   -3.2321228   -5.3150237 
C     1.8647601   -2.0477145   -4.6865820 
H     2.6489395   -1.6823145   -4.0269423 
C     2.8067821   -4.2828239   -5.2691040 
H     0.3204928   -4.1629842   -6.5993175 
H    -1.0145851   -1.7548212   -6.1463859 
H     3.6330362   -3.9442824   -4.6374320 
H     2.3683661   -5.1944435   -4.8478146 
H     3.1727450   -4.4792945   -6.2831551 
