48
Energy =
C     0.1204374    0.0993845    0.0949130 
C     0.1863842    0.1647013    1.5134639 
C     1.4144468    0.2916274    2.1497247 
C     2.5929642    0.3639369    1.4018753 
C     2.6299859    0.3032864   -0.0160488 
H    -0.7241477    0.1169504    2.1070752 
H     1.4714827    0.3386662    3.2396417 
O     3.8235278    0.5025520    2.0034652 
O     3.7946501    0.3887048   -0.5884186 
C    -1.1044032   -0.0052987   -0.6013799 
C    -1.2395639   -0.1263048   -1.9961298 
C     1.2142650    0.0091006   -2.0882402 
C     1.3489040    0.1370897   -0.6940622 
C    -2.5245043   -0.2303264   -2.6793456 
C    -2.4807037   -0.4028465   -4.0879026 
C    -1.2945597   -0.4539700   -4.8255321 
C    -0.0666005   -0.3247552   -4.1895179 
C    -0.0074611   -0.1473482   -2.7802466 
O    -3.6966571   -0.1940149   -2.1169980 
O    -3.7127288   -0.5200631   -4.6911683 
H    -1.3457676   -0.5952815   -5.9075505 
H     0.8489589   -0.3605054   -4.7761557 
H     4.4175524    0.5186581    1.1992450 
H    -4.3124137   -0.4437440   -3.8946288 
N     2.4079742    0.0209323   -2.8968206 
N    -2.2987880    0.0024734    0.2060105 
C     2.8515653    1.0733085   -3.6819145 
C     4.0750246    0.7167086   -4.1720360 
N     4.3576290   -0.5469184   -3.6743709 
C     3.3428131   -0.9404556   -2.8960140 
H     3.2818927   -1.8738815   -2.3524538 
C     5.5769826   -1.3101971   -3.9348513 
H     4.7591164    1.2379722   -4.8298069 
H     2.2605651    1.9701696   -3.8142338 
H     5.5053521   -2.2748618   -3.4244197 
H     5.6833965   -1.4703403   -5.0137360 
H     6.4419251   -0.7547299   -3.5542233 
C    -3.1178256   -1.0457455    0.3744626 
N    -4.1787101   -0.6460713    1.0852611 
C    -4.0476086    0.7069482    1.3616536 
C    -2.8678950    1.1139403    0.8078202 
H    -2.3845846    2.0819372    0.7822762 
H    -4.7937093    1.2492290    1.9287243 
C    -5.3051869   -1.4893235    1.4819894 
H    -2.9454309   -2.0438012   -0.0056778 
H    -5.3930921   -1.4910209    2.5743395 
H    -6.2265835   -1.0983433    1.0352466 
H    -5.1266045   -2.5079404    1.1253140 
