30
Energy =
O    -0.8722578   -3.8174495    0.1423954 
C    -0.7700798   -2.5244886    0.0759288 
C     0.4496605   -1.8305259    0.1460463 
C     0.5779298   -0.4124400    0.0757999 
C    -0.5778477    0.4123794   -0.0762478 
C    -0.4496128    1.8304105   -0.1466026 
C     0.7701289    2.5243817   -0.0768218 
O     0.8723135    3.8173281   -0.1438147 
C     1.9662287    1.6811850    0.0812493 
C     1.8725057    0.2495989    0.1552512 
C     3.0861361   -0.4742962    0.3080528 
C     4.3197386    0.1555619    0.3851756 
C     4.4006747    1.5624659    0.3118230 
C     3.2355591    2.2987687    0.1623696 
C    -1.8724596   -0.2496537   -0.1554921 
C    -1.9662094   -1.6812366   -0.0817379 
C    -3.2356042   -2.2987557   -0.1624588 
C    -4.4007443   -1.5623403   -0.3112641 
C    -4.3197779   -0.1554358   -0.3842781 
C    -3.0861036    0.4743327   -0.3076901 
H     1.3400939   -2.4522474    0.2627092 
H    -1.3400634    2.4521268   -0.2631274 
H     3.0572003   -1.5625081    0.3681807 
H     5.2266421   -0.4413684    0.5028784 
H     5.3698502    2.0623177    0.3725915 
H     3.2604370    3.3889266    0.1018829 
H    -3.2605102   -3.3889224   -0.1021211 
H    -5.3699696   -2.0621371   -0.3717241 
H    -5.2267122    0.4415651   -0.5013853 
H    -3.0571465    1.5625568   -0.3675687 
