50
Energy =
C    -0.0205966    0.5629946   -0.1230007 
C    -0.3022776    0.1991571    1.2244308 
C     0.7238866    0.0007695    2.1884732 
C     2.0769006    0.1816069    1.7299966 
C     2.3770402    0.5461063    0.4226126 
C     1.3542030    0.7597065   -0.5388185 
N    -1.6243784   -0.0350392    1.6634963 
O     0.4407871   -0.3389005    3.4281683 
C     3.1784716   -0.0236560    2.7326725 
H     3.4262174    0.6529697    0.1364230 
C     1.6336320    1.1534100   -1.8783879 
C    -1.0413584    0.7421641   -1.0935183 
C     0.6077702    1.3472096   -2.8437172 
C    -0.7421893    1.1176610   -2.3980287 
N     2.9596900    1.3242985   -2.3347743 
O     0.8895922    1.7093727   -4.0772201 
C    -1.8443929    1.3209449   -3.4005991 
H    -2.0864323    0.5700323   -0.8246993 
H     4.1265513    0.4073378    2.3915880 
H     2.9068502    0.4162344    3.7027412 
N     3.4501976   -1.4643342    2.9861803 
C     4.6488599   -2.1243881    2.7965465 
C     4.4372299   -3.4384004    3.1171944 
N     3.1101158   -3.5504801    3.4933953 
C     2.5265739   -2.3434871    3.4071729 
H     1.4926249   -2.0513290    3.6163380 
C     2.4450332   -4.7837706    3.9136996 
H     5.1060402   -4.2899287    3.1100569 
H     5.5396336   -1.6124931    2.4542690 
H     1.3980034   -4.5590080    4.1370317 
H     2.4999101   -5.5207853    3.1043194 
H     2.9379574   -5.1777106    4.8096138 
N    -1.9564265    0.1884239   -4.3593180 
H    -2.8244306    1.4054341   -2.9174200 
H    -1.6578551    2.2203356   -4.0041195 
C    -3.0658182   -0.6070970   -4.5707865 
C    -2.7170297   -1.5383245   -5.5117232 
N    -1.3983587   -1.2904649   -5.8512496 
C    -0.9529520   -0.2400232   -5.1420891 
H     0.0340144    0.2341597   -5.1394763 
C    -0.6134508   -2.0463084   -6.8273323 
H    -3.2844293   -2.3432987   -5.9618718 
H    -3.9974213   -0.4472605   -4.0423905 
H     0.4000310   -1.6353115   -6.8561009 
H    -0.5764204   -3.0995559   -6.5270685 
H    -1.0768067   -1.9576469   -7.8166627 
H    -1.6226748   -0.0653195    2.6877320 
H    -2.3046376    0.6460325    1.3252998 
H     2.9297648    1.8117070   -3.2355239 
H     3.5679662    1.8157630   -1.6796255 
