52
Energy =
C     0.0090528    0.5479974   -0.1305558 
C    -0.3185907    0.1878998    1.2112368 
C     0.6948237   -0.0330211    2.1837446 
C     2.0644890    0.1473355    1.7335828 
C     2.3821974    0.4952610    0.4332567 
C     1.3821456    0.7081619   -0.5563877 
C    -1.7578728    0.0259032    1.6300146 
O     0.4548534   -0.3863496    3.4211648 
C     3.1566161   -0.0504892    2.7490433 
H     3.4354575    0.6119748    0.1668996 
C     1.7100275    1.0614542   -1.8998881 
C    -0.9912097    0.7674343   -1.1186272 
C     0.6974328    1.2668758   -2.8765935 
C    -0.6732109    1.1119339   -2.4198460 
C     3.1495235    1.2206652   -2.3190925 
O     0.9395035    1.5724696   -4.1261668 
C    -1.7675097    1.3566285   -3.4229394 
H    -2.0450352    0.6667872   -0.8483240 
H     4.1033107    0.3937691    2.4209795 
H     2.8662177    0.3799395    3.7173492 
N     3.4446178   -1.4885053    2.9967595 
C     4.6388548   -2.1412664    2.7590961 
C     4.4473833   -3.4572829    3.0841394 
N     3.1362339   -3.5783190    3.5098721 
C     2.5431139   -2.3743341    3.4501951 
H     1.5128676   -2.0892841    3.6817148 
C     2.4950532   -4.8164229    3.9527351 
H     5.1210869   -4.3043791    3.0511210 
H     5.5132928   -1.6230006    2.3857334 
H     1.4531073   -4.6003893    4.2063829 
H     2.5327239   -5.5549018    3.1437542 
H     3.0176978   -5.2036585    4.8346873 
N    -1.9596575    0.2067958   -4.3472135 
H    -2.7367162    1.5162279   -2.9365930 
H    -1.5270369    2.2243702   -4.0523484 
C    -3.1024265   -0.5578489   -4.4815446 
C    -2.8283467   -1.5279880   -5.4076897 
N    -1.5198933   -1.3352007   -5.8147916 
C    -1.0085570   -0.2785950   -5.1613297 
H    -0.0042476    0.1531553   -5.2040423 
C    -0.8068063   -2.1456599   -6.8021675 
H    -3.4424072   -2.3256117   -5.8069021 
H    -4.0028887   -0.3502492   -3.9171038 
H     0.2214428   -1.7800760   -6.8790387 
H    -0.8032740   -3.1925721   -6.4785392 
H    -1.3041366   -2.0586497   -7.7750391 
H    -1.7966287   -0.2371878    2.6949457 
H    -2.3437755    0.9487315    1.4802445 
H    -2.2723093   -0.7677220    1.0611847 
H     3.1880174    1.4960793   -3.3809179 
H     3.6698983    2.0026224   -1.7400767 
H     3.7300162    0.2919440   -2.1836886 
