52
Energy =
C     0.0505304   -0.0322069    0.0975465 
C     0.3365604   -0.1166483    1.4956383 
C     1.6632573   -0.0831929    2.0114260 
C     2.7382215   -0.0530421    1.0356730 
C     2.4599044   -0.0003787   -0.3168752 
C     1.1349927    0.0319972   -0.8466719 
C    -0.7545336   -0.2106756    2.5184258 
O     1.9235590   -0.0682441    3.2878055 
C     4.1492487   -0.0657156    1.5539102 
H     3.3089947    0.0225289   -1.0059965 
C     0.8488938    0.1167902   -2.2447273 
C    -1.2744120    0.0000107   -0.4321771 
C    -0.4778747    0.0840076   -2.7604661 
C    -1.5528021    0.0531558   -1.7847177 
C     1.9398697    0.2100745   -3.2677374 
O    -0.7382449    0.0703547   -4.0368494 
C    -2.9638223    0.0656477   -2.3029343 
H    -2.1234439   -0.0232148    0.2570196 
H    -0.4027959   -0.7963172    3.3788441 
N    -1.1300710    1.1277902    3.0616959 
H    -1.6826776   -0.6524978    2.1406072 
C    -2.3431009    1.7745890    2.9368700 
C    -2.2055917    3.0030641    3.5274046 
N    -0.9063410    3.0783399    3.9975757 
C    -0.2691904    1.9320780    3.7038911 
H     0.7653040    1.6538898    3.9068830 
C    -0.3192953    4.2187719    4.7009851 
H    -2.9087973    3.8169257    3.6522791 
H    -3.1928374    1.3146340    2.4481011 
H     0.7224651    3.9855805    4.9400550 
H    -0.3610005    5.1044043    4.0568097 
H    -0.8775819    4.4045713    5.6257106 
N     2.3128031   -1.1286823   -3.8120355 
H     1.5890010    0.7969186   -4.1276677 
H     2.8688622    0.6500350   -2.8898785 
C     3.5211627   -1.7824204   -3.6782455 
C     3.3815425   -3.0094327   -4.2713036 
N     2.0856779   -3.0769956   -4.7518128 
C     1.4526135   -1.9274545   -4.4620449 
H     0.4207206   -1.6438262   -4.6708150 
C     1.4980529   -4.2131678   -5.4615918 
H     4.0813185   -3.8268922   -4.3918305 
H     4.3695536   -1.3278378   -3.1821907 
H     0.4580761   -3.9758444   -5.7043083 
H     2.0596790   -4.3977966   -6.3845387 
H     1.5341556   -5.1009892   -4.8201187 
H     4.8817671   -0.0681181    0.7342523 
H     4.3406530    0.8094939    2.1957486 
H     4.3275074   -0.9465380    2.1915580 
H    -3.1424347    0.9467771   -2.9400655 
H    -3.1548290   -0.8092454   -2.9453069 
H    -3.6963474    0.0672849   -1.4832743 
