60
Energy =
C     0.0245784    0.0249855    0.0716474 
C     0.2120201   -0.1815546    1.4742517 
C     1.4881719   -0.3991136    2.0455941 
C     2.6012535   -0.5189791    1.1088579 
C     2.4333545   -0.3088577   -0.2465751 
C     1.1576669   -0.0299839   -0.8131602 
C    -0.9332888   -0.1311681    2.4395972 
O     1.7123022   -0.4790987    3.3249876 
N     3.8164320   -0.7863462    1.7638946 
H     3.3037158   -0.3328476   -0.8967303 
C     0.9702239    0.1775313   -2.2156251 
C    -1.2512726    0.3031302   -0.4948413 
C    -0.3059608    0.3954301   -2.7868164 
C    -1.4193603    0.5133001   -1.8502367 
C     2.1156065    0.1293152   -3.1810770 
O    -0.5298173    0.4773609   -4.0661731 
N    -2.6347811    0.7793785   -2.5053162 
H    -2.1215389    0.3265461    0.1554375 
H    -0.7152959   -0.7689865    3.3061954 
N    -1.1502945    1.2427453    2.9758332 
H    -1.8905482   -0.4414044    2.0077113 
C    -2.2746778    2.0305993    2.8339954 
C    -2.0019393    3.2309973    3.4344609 
N    -0.7122542    3.1479867    3.9284769 
C    -0.2121457    1.9356535    3.6388414 
H     0.7740129    1.5443361    3.8787476 
C    -0.0085500    4.2063590    4.6537313 
H    -2.6045420    4.1230424    3.5503138 
H    -3.1667468    1.6758559    2.3333528 
H     0.9945767    3.8516065    4.9071218 
H     0.0629537    5.0957918    4.0177763 
H    -0.5585231    4.4468936    5.5706469 
N     2.3315514   -1.2428473   -3.7221395 
H     1.8983511    0.7702591   -4.0455339 
H     3.0730463    0.4373276   -2.7480453 
C     3.4520639   -2.0353495   -3.5755192 
C     3.1789478   -3.2326615   -4.1819401 
N     1.8928685   -3.1432499   -4.6841384 
C     1.3952952   -1.9300465   -4.3937560 
H     0.4119209   -1.5341463   -4.6378445 
C     1.1902375   -4.1964494   -5.4179054 
H     3.7792173   -4.1263549   -4.2972171 
H     4.3421618   -1.6856828   -3.0678821 
H     0.1886815   -3.8386363   -5.6732028 
H     1.7433261   -4.4330419   -6.3339866 
H     1.1147781   -5.0891370   -4.7869986 
H     3.6986676   -0.6572637    2.7788625 
C     4.9920737   -1.3704159    1.3879104 
O     5.9008993   -1.5209877    2.2281103 
C     5.1637245   -1.8382162   -0.0387016 
H     4.2565182   -2.3294689   -0.4166507 
H     5.3901605   -0.9851222   -0.6955257 
H     6.0093974   -2.5331026   -0.0739295 
H    -2.5167366    0.6509104   -3.5203203 
C    -3.8116931    1.3606606   -2.1290877 
O    -4.7205045    1.5103766   -2.9694951 
C    -3.9847962    1.8265686   -0.7020387 
H    -3.0794377    2.3213162   -0.3241267 
H    -4.8332938    2.5179405   -0.6659308 
H    -4.2073643    0.9721350   -0.0456499 
