58
Energy =
O    -1.0361868   -3.1406582   -2.0859099 
C    -0.8651770   -2.0428589   -1.4279451 
C     0.2787336   -1.7848186   -0.6279839 
C     0.5245260   -0.4893531   -0.0333826 
C    -0.5249222    0.4862430    0.0323194 
C    -0.2791423    1.7811373    0.6282927 
C     0.8648205    2.0384279    1.4286598 
O     1.0351541    3.1350655    2.0885837 
C     1.9323912    1.0360982    1.3715389 
C     1.8137696   -0.1253064    0.5450894 
C     3.0166163   -0.8396619    0.2930910 
C     4.2151507   -0.5304360    0.9172718 
C     4.2812131    0.5388753    1.8305019 
C     3.1527025    1.3182470    2.0257999 
C    -1.8137633    0.1224480   -0.5473956 
C    -1.9320225   -1.0396122   -1.3730877 
C    -3.1515436   -1.3215330   -2.0288932 
C    -4.2797941   -0.5411421   -1.8361960 
C    -4.2143955    0.5288091   -0.9236786 
C    -3.0166338    0.8376761   -0.2978299 
C     1.0847945   -3.0305122   -0.3586909 
C    -1.0854985    3.0270818    0.3614071 
H     3.0234105   -1.6426523   -0.4374962 
H     5.1066142   -1.1179703    0.6900695 
H     5.2153426    0.7714579    2.3453348 
H     3.1811637    2.2027264    2.6643133 
H    -3.1795587   -2.2064936   -2.6667611 
H    -5.2132493   -0.7734173   -2.3523908 
H    -5.1057732    1.1171893   -0.6983404 
H    -3.0242459    1.6412227    0.4320868 
H    -0.4639686    3.8773900    0.6806195 
N    -1.4096411    3.2100238   -1.0751349 
H    -2.0402801    3.1278435    0.8960368 
C    -2.4976284    3.8968569   -1.5774848 
C    -2.4406283    3.8041878   -2.9410701 
N    -1.3167520    3.0567093   -3.2444298 
C    -0.7073108    2.7062462   -2.0993659 
H     0.1871860    2.1033441   -2.0112942 
C    -0.8740418    2.6860468   -4.5884782 
H    -3.0961073    4.1923591   -3.7104878 
H    -3.2169606    4.3799803   -0.9284847 
H     0.0383205    2.0877328   -4.5071782 
H    -1.6575729    2.0991057   -5.0813869 
H    -0.6691328    3.5927729   -5.1688016 
H     2.0393719   -3.1328631   -0.8933458 
N     1.4094099   -3.2101220    1.0781422 
H     0.4628561   -3.8813303   -0.6757262 
C     2.4987951   -3.8936892    1.5818873 
C     2.4416495   -3.7982771    2.9452805 
N     1.3162183   -3.0524976    3.2471103 
C     0.7060693   -2.7056312    2.1013410 
H    -0.1897796   -2.1049167    2.0119686 
C     0.8731663   -2.6793113    4.5903437 
H     3.0979270   -4.1835311    3.7154804 
H     3.2191395   -4.3766656    0.9339080 
H    -0.0431777   -2.0872521    4.5080450 
H     0.6749522   -3.5850451    5.1745092 
H     1.6536196   -2.0853816    5.0797992 
