26
Energy =
O    -3.1159900    2.0593636   -0.6021123 
C    -2.7296074    0.7737420   -0.2622521 
C    -1.3641909    0.4220710   -0.1529766 
C    -0.3065131    1.3294659   -0.3753924 
C     1.0410314    0.9538205   -0.2600153 
C     2.1169793    1.8680967   -0.4840591 
C     3.4349483    1.4704107   -0.3639857 
C     3.7974711    0.1241975   -0.0089004 
O     5.0282898   -0.3150082    0.1212298 
C     2.7296314   -0.7738672    0.2112348 
O     3.1160905   -2.0593558    0.5508932 
C     1.3642039   -0.4220006    0.1026802 
C     0.3065057   -1.3293574    0.3252149 
C    -1.0410296   -0.9537256    0.2098089 
C    -2.1170331   -1.8679774    0.4337721 
C    -3.4349737   -1.4704549    0.3130213 
C    -3.7974900   -0.1243283   -0.0425468 
O    -5.0282688    0.3147446   -0.1733166 
H    -4.1099808    1.9442219   -0.5856404 
H    -0.5436015    2.3612328   -0.6471747 
H     1.8766315    2.8998382   -0.7556787 
H     4.2464777    2.1832245   -0.5392537 
H     4.1100615   -1.9442665    0.5342337 
H     0.5435924   -2.3611588    0.5968506 
H    -1.8767242   -2.8996226    0.7057838 
H    -4.2465114   -2.1833066    0.4880817 
