54
Energy =
C     0.0561412    0.0662217   -0.1575008 
C    -0.0874707    0.1048523    1.2381199 
C     1.0203558    0.0400391    2.1064986 
C     2.3560833   -0.0682508    1.5331231 
C     2.4996856   -0.1070009    0.1374992 
C     1.3918551   -0.0421755   -0.7308750 
H    -1.0901294    0.1868148    1.6636599 
C     0.9054644    0.0778021    3.5164105 
C     3.4741790   -0.1304020    2.4161282 
H     3.5023464   -0.1889645   -0.2880451 
C     1.5067128   -0.0799495   -2.1407871 
C    -1.0619288    0.1289471   -1.0404983 
C     0.4069171   -0.0107296   -3.0186299 
C    -0.9013405    0.0918911   -2.4136659 
O     2.7424504   -0.1821210   -2.7476322 
O     0.6148167   -0.0543418   -4.3155127 
C    -2.0890586    0.1581688   -3.3347784 
H    -2.0648401    0.2094039   -0.6116503 
C     3.3135636   -0.0930946    3.7892836 
C     2.0052818    0.0090821    4.3942538 
H     4.4771337   -0.2104879    1.9872968 
O    -0.3303079    0.1798923    4.1231895 
O     1.7973650    0.0528045    5.6911490 
C     4.5012978   -0.1579527    4.7104720 
N     4.8523066    1.1771826    5.2595369 
H     4.2922802   -0.8085273    5.5705242 
H     5.3964651   -0.5213261    4.1941257 
C     6.0273246    1.8702395    5.0405013 
C     5.9119477    3.0687048    5.6913147 
N     4.6649632    3.0816144    6.2906390 
C     4.0362248    1.9271380    6.0181140 
H     3.0316357    1.6092451    6.3035358 
C     4.1154875    4.1766931    7.0905511 
H     6.6001696    3.8999371    5.7796319 
H     6.8365514    1.4582116    4.4506542 
H     3.1104481    3.8995997    7.4215429 
H     4.7575985    4.3491492    7.9616648 
H     4.0664461    5.0842091    6.4782864 
H    -1.8795407    0.8091224   -4.1944326 
N    -2.4414062   -1.1762402   -3.8847591 
H    -2.9838599    0.5220276   -2.8181352 
C    -3.6191634   -1.8660738   -3.6702850 
C    -3.5049355   -3.0644315   -4.3215108 
N    -2.2559156   -3.0804963   -4.9165089 
C    -1.6248360   -1.9280090   -4.6409982 
H    -0.6186500   -1.6124379   -4.9234196 
C    -1.7065240   -4.1768672   -5.7147117 
H    -4.1951917   -3.8936626   -4.4127356 
H    -4.4293208   -1.4519907   -3.0831594 
H    -0.7016588   -3.9001596   -6.0465547 
H    -1.6571429   -5.0834271   -5.1010355 
H    -2.3489463   -4.3507638   -6.5852936 
H    -0.0679077    0.1828072    5.0840413 
H     2.4800184   -0.1844370   -3.7084881 
