60
Energy =
C     0.1545048    0.1184910   -0.2570409 
C    -0.1055421    0.2790176    1.1127780 
C     0.9084200    0.1713384    2.0858804 
C     2.2575549   -0.1174990    1.6304831 
C     2.5176025   -0.2780583    0.2606611 
C     1.5035872   -0.1705988   -0.7124281 
H    -1.1248124    0.4968081    1.4377347 
C     0.6641618    0.3400058    3.4785544 
C     3.2807293   -0.2374328    2.6170546 
H     3.5368626   -0.4958846   -0.0643032 
C     1.7477102   -0.3398685   -2.1050620 
C    -0.8686770    0.2384978   -1.2435846 
C     0.7387326   -0.2313197   -3.0905888 
C    -0.5990277    0.0829349   -2.5842333 
O     3.0474294   -0.6726257   -2.4898621 
O     0.9437449   -0.4017713   -4.3618980 
C    -1.6940536    0.2225597   -3.6071762 
H    -1.8879945    0.4642659   -0.9150678 
C     3.0109473   -0.0824849    3.9577468 
C     1.6729978    0.2309099    4.4641616 
H     4.3001282   -0.4628340    2.2885242 
O    -0.6356609    0.6722906    3.8634408 
O     1.4676204    0.4000816    5.7355539 
C     4.1058954   -0.2223515    4.9807357 
N     4.6072883    1.0944039    5.4527329 
H     3.7371828   -0.7549127    5.8675693 
H     4.9753029   -0.7502423    4.5735718 
C     5.8762007    1.6047433    5.2550567 
C     5.8962475    2.8545152    5.8126376 
N     4.6353122    3.0810662    6.3350104 
C     3.8669159    2.0037936    6.1073566 
H     2.8147125    1.8443692    6.3481474 
C     4.2038421    4.2988131    7.0218846 
H     6.6879531    3.5898348    5.8838441 
H     6.6487567    1.0428181    4.7453897 
H     3.1546665    4.1860358    7.3102878 
H     4.8190122    4.4503222    7.9160783 
H     4.3117326    5.1546394    6.3459908 
H    -1.3251202    0.7538930   -4.4946481 
N    -2.1964721   -1.0943430   -4.0776839 
H    -2.5630083    0.7515147   -3.2004200 
C    -3.4661205   -1.6030150   -3.8804703 
C    -3.4870549   -2.8535116   -4.4363938 
N    -2.2259047   -3.0821564   -4.9573296 
C    -1.4565218   -2.0054378   -4.7303994 
H    -0.4039747   -1.8474996   -4.9706403 
C    -1.7949778   -4.3015680   -5.6415998 
H    -4.2795023   -3.5880639   -4.5072703 
H    -4.2385375   -1.0395228   -3.3723218 
H    -0.7466676   -4.1886193   -5.9330566 
H    -1.9003200   -5.1555250   -4.9629250 
H    -2.4123112   -4.4562810   -6.5337370 
C     3.7095346    0.3787877   -3.2166578 
H     3.1541703    0.6232403   -4.1355577 
H     3.8055043    1.2807173   -2.5878335 
H     4.7099873    0.0060682   -3.4733855 
C    -1.2980619   -0.3803306    4.5882488 
H    -0.7429961   -0.6263304    5.5069239 
H    -2.2985829   -0.0080056    4.8452926 
H    -1.3938172   -1.2812213    3.9579075 
