56
Energy =
C     0.0354467    0.0685175   -0.1415629 
C    -0.1083398    0.0957468    1.2554061 
C     0.9924316    0.0523978    2.1366028 
C     2.3203434   -0.0518255    1.5498761 
C     2.4644087   -0.0746614    0.1528380 
C     1.3653873   -0.0014544   -0.7285650 
H    -1.1239431    0.1307590    1.6579199 
C     0.8553851    0.0999124    3.5554610 
C     3.4408720   -0.1326701    2.4248572 
H     3.4759613   -0.1723825   -0.2494306 
C     1.5050879   -0.0050875   -2.1479177 
C    -1.0880160    0.1016457   -1.0159587 
C     0.3828053    0.0345092   -3.0139685 
C    -0.9247239    0.0820092   -2.3875389 
N     2.7752723   -0.1052769   -2.7595195 
O     0.5196927    0.0256015   -4.3170154 
C    -2.1200403    0.1329774   -3.2998079 
H    -2.0921478    0.1496612   -0.5840764 
C     3.2780964   -0.1018658    3.7963438 
C     1.9750081    0.0183939    4.4220583 
H     4.4429361   -0.2160261    1.9935061 
N    -0.4168423    0.1682251    4.1675467 
O     1.8410707    0.0714863    5.7244526 
C     4.4728629   -0.1787754    4.7081326 
N     4.8567771    1.1543803    5.2414673 
H     4.2573794   -0.8150962    5.5771198 
H     5.3566399   -0.5629711    4.1868825 
C     6.0543412    1.8097456    5.0287456 
C     5.9670915    3.0189232    5.6643139 
N     4.7139805    3.0755680    6.2483549 
C     4.0542141    1.9366807    5.9812940 
H     3.0393884    1.6415231    6.2590305 
C     4.1874341    4.1956880    7.0284507 
H     6.6784790    3.8306418    5.7511653 
H     6.8577096    1.3672094    4.4531617 
H     3.1715053    3.9510219    7.3519109 
H     4.8246108    4.3614048    7.9045339 
H     4.1701165    5.0966868    6.4048344 
H    -1.9284437    0.8002036   -4.1512110 
N    -2.4464366   -1.2005028   -3.8690681 
H    -3.0203145    0.4663313   -2.7718369 
C    -3.6182766   -1.9079875   -3.6814576 
C    -3.4788461   -3.0967327   -4.3455505 
N    -2.2206907   -3.0891512   -4.9214694 
C    -1.6086160   -1.9320011   -4.6215840 
H    -0.6055454   -1.5906158   -4.8878021 
C    -1.6445746   -4.1682284   -5.7240193 
H    -4.1566241   -3.9337480   -4.4569970 
H    -4.4425479   -1.5122868   -3.1012816 
H    -0.6393247   -3.8732671   -6.0385622 
H    -1.5903310   -5.0812527   -5.1203028 
H    -2.2719569   -4.3416952   -6.6056695 
H     2.6757159    0.1233211   -3.7530513 
H     3.4906505    0.4833246   -2.3311779 
H    -0.2899949    0.4188285    5.1526027 
H    -1.0600043    0.8198323    3.7168796 
