54
Energy =
C    -0.1795197    2.8108379    0.6712130 
C    -0.0576101    1.3075505    0.5267509 
C    -1.2509419    0.5591890    0.3549593 
C    -2.5269989    1.1710670    0.6048035 
C    -3.6919622    0.4731262    0.4604226 
O    -4.9225195    1.0041375    0.7172642 
C    -3.7335870   -0.8857031   -0.0621540 
O    -4.8957835   -1.4049783   -0.2752878 
C    -2.4783167   -1.4619829   -0.3475470 
C    -1.2122008   -0.8328553   -0.0513138 
C     0.0464955   -1.4820236   -0.1316230 
C     0.1686042   -2.9853345   -0.2757223 
C     1.2398000   -0.7335941    0.0399476 
C     2.5158486   -1.3453622   -0.2102225 
C     3.6808532   -0.6476502   -0.0651015 
O     4.9113743   -1.1785585   -0.3223513 
C     3.7224917    0.7107612    0.4585758 
O     4.8846724    1.2296035    0.6728653 
C     2.4671670    1.2871903    0.7434291 
C     1.2010586    0.6583165    0.4465799 
H     0.7186586    3.3218633    0.3101376 
H    -1.0154618    3.1843905    0.0654074 
H    -0.3567983    3.1458482    1.7063571 
H    -2.5836681    2.1983870    0.9620637 
H    -5.5237883    0.2549502    0.4425310 
H     1.0045038   -3.3585602    0.3303513 
H    -0.7295481   -3.4964305    0.0853191 
H     0.3461042   -3.3205806   -1.3107538 
H     2.5724971   -2.3724255   -0.5682492 
H     5.5127583   -0.4299880   -0.0462468 
N     2.5388829    2.4568649    1.5702586 
C     1.9855905    2.5856458    2.8392726 
C     2.4345949    3.7658689    3.3591496 
N     3.2672746    4.3357866    2.4114461 
C     3.3230219    3.5256306    1.3402756 
H     3.8941434    3.7031160    0.4398247 
C     3.9804215    5.6037780    2.5569571 
H     2.2383422    4.2450442    4.3101670 
H     1.3275656    1.8286671    3.2451975 
H     4.5307014    5.8071955    1.6335045 
H     3.2593470    6.4082453    2.7405749 
H     4.6822758    5.5347564    3.3962877 
N    -2.5502274   -2.6318511   -1.1740619 
C    -1.9967112   -2.7611559   -2.4429297 
C    -2.4456521   -3.9415765   -2.9624166 
N    -3.2784500   -4.5111397   -2.0146145 
C    -3.3344591   -3.7005091   -0.9438043 
H    -3.9062342   -3.8773445   -0.0436455 
C    -3.9928451   -5.7783905   -2.1603408 
H    -2.2492782   -4.4211161   -3.9132220 
H    -1.3383647   -2.0045061   -2.8489426 
H    -4.5343093   -5.9870190   -1.2328424 
H    -4.7025611   -5.7052028   -2.9927302 
H    -3.2732310   -6.5815408   -2.3548966 
