24
Energy =
C    -0.0425239    0.0002137   -0.0214890 
C    -0.0004077    0.0000530    1.3881385 
C     1.1946129   -0.0000358    2.1139865 
C     2.4529685    0.0002027    1.3964866 
C     2.4108459    0.0000387   -0.0131433 
C     1.2158271   -0.0000355   -0.7389898 
H    -0.9358891   -0.0001116    1.9548712 
C     1.1645415   -0.0003760    3.5952874 
C     3.6806357    0.0004478    2.1282603 
H     3.3463271   -0.0001383   -0.5798765 
C     1.2458954   -0.0003606   -2.2202886 
C    -1.2701969    0.0004604   -0.7532630 
C    -0.0199823   -0.0002698   -2.8602858 
C    -1.2355351    0.0001399   -2.1381380 
O     2.3659116   -0.0006944   -2.8584135 
H    -0.0329318   -0.0003242   -3.9541661 
H    -2.1767700    0.0002355   -2.6971288 
H    -2.2182577    0.0007427   -0.2103948 
C     3.6459707    0.0001489    3.5131375 
C     2.4304203   -0.0002590    4.2352855 
H     4.6286984    0.0007157    1.5853951 
O     0.0445266   -0.0007523    4.2334094 
H     2.4433695   -0.0003005    5.3291659 
H     4.5872055    0.0002590    4.0721288 
