18
Energy =
C    -0.0332947    0.0002264   -0.0224427 
C    -0.0616975   -0.0001837    1.4504007 
C     1.2030947   -0.0001422    2.1004888 
C     2.4182294    0.0001649    1.3866008 
C     2.4392644    0.0004334   -0.0029525 
C     1.2167096    0.0002552   -0.7274763 
O    -1.1826055   -0.0006383    2.0996256 
H     1.2052376   -0.0004928    3.1953073 
H     3.3613128    0.0001820    1.9436162 
H     3.3745414    0.0003955   -0.5650423 
C     1.2453210   -0.0001574   -2.2003357 
C    -1.2558001    0.0004508   -0.7470803 
C    -0.0194428   -0.0001563   -2.8504904 
C    -1.2346112    0.0001741   -2.1366265 
O     2.3663608   -0.0006047   -2.8492568 
H    -0.0215720   -0.0005167   -3.9453116 
H    -2.1776651    0.0001931   -2.6936948 
H    -2.1912855    0.0004167   -0.1853275 
