24
Energy =
C    -0.0452972    0.0000651   -0.0237169 
C     0.0039529   -0.0000112    1.3998724 
C     1.1951667   -0.0000369    2.1002299 
C     2.4310118   -0.0000449    1.3888295 
C     2.4235319    0.0000140    0.0069998 
C     1.2171323    0.0000554   -0.7506056 
H    -0.9541331   -0.0000649    1.9260176 
H     1.1935157   -0.0000906    3.1929422 
H     3.3767672   -0.0001466    1.9363445 
H     3.3598412    0.0000013   -0.5571051 
C     1.2790225    0.0000742   -2.1927418 
C     0.0004240    0.0000689   -2.8626428 
O     2.4104659    0.0000327   -2.8450720 
C    -0.0489484    0.0000285   -4.2862671 
C    -1.2402194   -0.0000053   -4.9865314 
C    -2.4760390   -0.0000567   -4.2751084 
C    -2.4684569    0.0000069   -2.8932749 
C    -1.2620370    0.0000820   -2.1357495 
H     0.9089745    0.0000235   -4.8127190 
H    -1.2386035   -0.0000654   -6.0792445 
H    -3.4218173   -0.0002320   -4.8225814 
H    -3.4047259   -0.0000512   -2.3290957 
C    -1.3239598    0.0001347   -0.6935612 
O    -2.4552090    0.0002186   -0.0411087 
