20
Energy =
C    -0.0448467   -0.0001551    0.0504424 
C     0.0930519    0.0000513    1.4715245 
C     1.2953018    0.0000689    2.1669026 
C     2.4985961   -0.0001010    1.3704769 
C     2.3927319   -0.0000243   -0.0112561 
C     1.1306244   -0.0000597   -0.6946361 
C    -1.2085422    0.0001942    2.0593714 
H     3.4788090   -0.0002048    1.8534949 
H     3.3070391    0.0000597   -0.6113204 
H     1.1077114    0.0000733   -1.7880442 
C    -1.2674970   -0.0000066    3.4501581 
C    -0.0456486   -0.0000657    4.2032658 
C     1.2053578    0.0001742    3.6069944 
H     2.1125033    0.0003661    4.2158680 
H    -0.1105587   -0.0003058    5.2950461 
H    -2.2262781   -0.0001446    3.9764911 
C    -2.2092278    0.0000506    0.9714969 
C    -1.4868306   -0.0000346   -0.2761415 
O    -3.5062211    0.0000780    1.1538760 
O    -1.9738272   -0.0000143   -1.4915691 
