18
Energy =
C    -0.0240234   -0.0001445    0.0004053 
C    -0.0001441   -0.0001767    1.4214240 
C     1.1968609    0.0000403    2.1798643 
C     2.4148224   -0.0000528    1.3892186 
C     2.4176193   -0.0000296    0.0076069 
C     1.2075662   -0.0001665   -0.7504250 
H    -0.9527292   -0.0001774    1.9641646 
O     1.2380739    0.0004594    3.4842768 
H     3.3619694    0.0000728    1.9393983 
H     3.3707893    0.0000224   -0.5328455 
C     1.1837458   -0.0002098   -2.1714329 
C    -1.2340872   -0.0000090   -0.7576041 
C    -0.0132759    0.0000444   -2.9298546 
C    -1.2312542   -0.0000527   -2.1392067 
H     2.1363346   -0.0002046   -2.7141458 
O    -0.0545095    0.0004964   -4.2342623 
H    -2.1783859    0.0000620   -2.6894133 
H    -2.1872457    0.0000259   -0.2171566 
