12
Energy =
C    -0.0939643    0.0000045   -0.0541697 
C     0.0095838   -0.0000323    1.3795902 
C     1.2251748    0.0000136    2.0812823 
C     2.5188166    0.0000416    1.4541527 
C     2.4153155   -0.0000066    0.0203939 
C     1.1997167   -0.0000112   -0.6813012 
Cl   -1.5219216   -0.0000518    2.2488120 
Cl    1.2387756   -0.0000340    3.8420343 
O     3.6354143    0.0001066    2.0995819 
Cl    3.9467976   -0.0001262   -0.8489099 
Cl    1.1860806    0.0000404   -2.4420494 
O    -1.2105658    0.0000553   -0.6994193 
