27
Energy =
C    -1.3399969   -0.0002787   -0.7049927 
C    -0.0606337   -0.0002760   -0.0359435 
C     1.2011503   -0.0002410   -0.7580823 
C     1.2645324   -0.0003889   -2.1988821 
C    -0.0127418   -0.0001373   -2.8707884 
C    -1.2776254   -0.0001859   -2.1470985 
C     2.4083942   -0.0000778    0.0022295 
C     2.4357759    0.0001997    1.3847888 
C     1.1858976    0.0003090    2.0823145 
C    -0.0061842   -0.0001285    1.3864801 
C    -2.4823469   -0.0000098   -2.9064489 
C    -2.4878310    0.0001711   -4.2886137 
C    -1.2502881    0.0002198   -4.9971951 
C    -0.0601865    0.0000304   -4.2947847 
O     2.3978135   -0.0007019   -2.8513243 
O    -2.4709944   -0.0002236   -0.0523072 
H    -0.9614312   -0.0001528    1.9180479 
H     1.1836570    0.0005689    3.1763998 
C     3.7284371    0.0001697    2.1632917 
H     3.3441925   -0.0001661   -0.5645396 
H     0.8986247    0.0000247   -4.8196994 
H    -1.2463690    0.0004137   -6.0899804 
H    -3.4326128    0.0003935   -4.8377901 
H    -3.4198042    0.0000412   -2.3440901 
H     4.6011669    0.0005548    1.4950785 
H     3.8042115    0.8836073    2.8192940 
H     3.8044893   -0.8837354    2.8186339 
