14
Energy =
C    -0.0604307   -0.0001310   -0.0786974 
C     0.0383845   -0.0001154    1.3686441 
C     1.2297263    0.0001266    2.0525988 
C     2.5298179    0.0001126    1.4088142 
C     2.4713911    0.0000031   -0.0272816 
C     1.2096232   -0.0000159   -0.7517808 
H    -0.9096808   -0.0001827    1.9155261 
H     1.2354452    0.0002007    3.1470776 
O     3.6219585    0.0000986    2.0884403 
C     3.6884183   -0.0001452   -0.7316047 
C     1.2038573    0.0001507   -2.1577700 
O    -1.1972772   -0.0001402   -0.6804895 
N     4.7076812   -0.0002832   -1.3178564 
N     1.1951753    0.0003212   -3.3335566 
