30
Energy =
C    -4.1649135   -1.6764190    0.1844968 
C    -2.8588985   -0.9229419    0.1289293 
C    -1.6368453   -1.5578361    0.1552762 
C    -0.3965195   -0.8537744    0.1041309 
C    -0.4085327    0.6075017    0.0204165 
C    -1.6994893    1.2549830   -0.0065500 
C    -1.8580736    2.7574750   -0.0919104 
C    -2.8635684    0.5008078    0.0465605 
C     0.8340411    1.3553076   -0.0313259 
O     0.8948328    2.6537495   -0.1066943 
C     2.0489509    0.5624330    0.0064054 
C     2.0414863   -0.8863789    0.0894316 
C     3.2947908   -1.5652900    0.1214012 
C     4.5003797   -0.8919932    0.0759902 
C     4.5092640    0.5311230   -0.0059579 
C     3.3096781    1.2195393   -0.0386948 
C     0.8155693   -1.6362269    0.1396541 
O     0.8039434   -2.9443670    0.2139424 
H    -4.7821161   -1.4814507   -0.7086118 
H    -4.7703907   -1.3715522    1.0547845 
H    -3.9993623   -2.7609719    0.2511466 
H    -1.5765887   -2.6479422    0.2181842 
H    -2.9270102    3.0223272   -0.0983252 
H    -1.3642905    3.2643520    0.7479863 
H    -1.3789745    3.1638720   -0.9926962 
H    -3.8266568    1.0215279    0.0248479 
H     3.2636911   -2.6560028    0.1843066 
H     5.4431103   -1.4444638    0.1026166 
H     5.4581275    1.0719971   -0.0425257 
H     3.2940654    2.3106149   -0.1012161 
