30
Energy =
C    -2.7219223    2.0933504   -0.5775920 
C    -2.5354704    0.6691452   -0.0998015 
C    -3.6862854   -0.0939428    0.0716891 
C    -3.6289315   -1.4574354    0.4677364 
C    -2.4016441   -2.0523726    0.6556171 
C    -1.1836870   -1.3322735    0.4789830 
C    -1.2359946    0.0840307    0.1247284 
C    -0.0133548    0.8700248    0.0244728 
O    -0.0371374    2.1642235   -0.0441277 
C     1.2381360    0.1243541    0.0395123 
C     1.2559211   -1.2930996    0.3930124 
C     2.5054001   -1.9744334    0.4806968 
C     3.6970166   -1.3401781    0.2097727 
C     3.6834561    0.0255723   -0.1824858 
C     2.4998374    0.7518139   -0.2706297 
C     2.6077892    2.1830455   -0.7517427 
C     0.0558111   -2.0403831    0.6633056 
O     0.0887578   -3.2994565    1.0306202 
H    -2.0857905    2.3106228   -1.4460848 
H    -2.4252639    2.8237773    0.1866918 
H    -3.7765547    2.2618237   -0.8491165 
H    -4.6585960    0.3690579   -0.1192256 
H    -4.5529767   -2.0256710    0.6026919 
H    -2.3151842   -3.1039435    0.9384176 
H     2.4723410   -3.0285563    0.7650233 
H     4.6458695   -1.8789162    0.2771547 
H     4.6252052    0.5201325   -0.4370314 
H     3.6371869    2.3882544   -1.0870995 
H     1.9121317    2.3808873   -1.5781617 
H     2.3339338    2.9006457    0.0328729 
