30
Energy =
C     5.2209264    0.0732234    0.0718756 
C     3.7536362   -0.2760581    0.0253629 
C     2.7642824    0.6729117    0.2079374 
C     1.3709698    0.3704593    0.1683355 
C     0.9760407   -1.0072142   -0.0789173 
C     2.0129813   -1.9653256   -0.2628075 
C     3.3508952   -1.6285848   -0.2150960 
C    -0.4052944   -1.4220006   -0.1415621 
O    -0.7543611   -2.6618202   -0.3653619 
C    -1.3709695   -0.3701827    0.0609211 
C    -0.9760509    1.0074752    0.3082361 
C    -2.0129897    1.9653858    0.4931365 
C    -3.3508856    1.6283700    0.4467688 
C    -3.7536230    0.2759374    0.2057387 
C    -5.2208921   -0.0735015    0.1599417 
C    -2.7642568   -0.6727678    0.0218780 
C     0.4052876    1.4223623    0.3703592 
O     0.7543524    2.6622526    0.5937177 
H     5.7262415   -0.1792001   -0.8756170 
H     5.7447811   -0.4873346    0.8642683 
H     5.3733537    1.1454153    0.2598640 
H     3.0332822    1.7171308    0.3938177 
H     1.7051708   -2.9979960   -0.4470610 
H     4.1162223   -2.3967550   -0.3614697 
H    -1.7052010    2.9980400    0.6775283 
H    -4.1162145    2.3963345    0.5942207 
H    -5.7454824    0.4883373   -0.6310561 
H    -5.7254716    0.1772096    1.1082820 
H    -5.3733106   -1.1454011   -0.0297150 
H    -3.0332204   -1.7169027   -0.1645275 
