30
Energy =
C     4.9507993    0.4832305    1.2639531 
C     3.6625570    0.3441248    0.4903371 
C     2.4340274    0.2495634    1.1180380 
C     1.2004539    0.1186062    0.4127440 
C     1.2465291    0.0830599   -1.0401792 
C     2.5222383    0.1819126   -1.6626697 
C     3.6922086    0.3077140   -0.9404020 
C     0.0584813   -0.0464198   -1.8505073 
O     0.0997179   -0.0789957   -3.1547709 
C    -1.1784175   -0.1373676   -1.1112783 
C    -1.2240256   -0.1016529    0.3416347 
C    -2.5000217   -0.1990844    0.9727137 
C    -3.6866251   -0.3250905    0.2737423 
C    -5.0215161   -0.4271535    0.9700397 
C    -3.6259322   -0.3586506   -1.1560139 
C    -2.4123658   -0.2673641   -1.8079787 
C    -0.0360680    0.0273359    1.1490281 
O    -0.0774189    0.0596723    2.4569644 
H     5.4829213    1.4122537    0.9982829 
H     4.7691705    0.4965954    2.3478498 
H     5.6438445   -0.3465921    1.0462520 
H     2.3725447    0.2740544    2.2102502 
H     2.5431676    0.1539891   -2.7554199 
H     4.6531804    0.3812405   -1.4582718 
H    -2.5086236   -0.1696156    2.0664971 
H    -5.5354632   -1.3710129    0.7212090 
H    -4.9095953   -0.3818197    2.0624013 
H    -5.6995505    0.3873883    0.6644366 
H    -4.5525247   -0.4574010   -1.7291316 
H    -2.3633937   -0.2926207   -2.8998507 
