32
Energy =
C    -0.0501298    0.0437422   -4.3015432 
C    -0.0168500    0.0119602   -2.8796248 
C    -1.2683937   -0.0301786   -2.1702891 
C    -2.4719463   -0.0378237   -2.9290895 
C    -2.4735859   -0.0044065   -4.3119566 
C    -1.2363589    0.0367088   -5.0130404 
C    -1.3427406   -0.0655354   -0.7219834 
C    -0.0748246   -0.0272068   -0.0201506 
C     1.2159142   -0.0047501   -0.7517626 
C     1.2649797    0.0186762   -2.2004142 
C     2.4352099   -0.0076793    0.0354263 
C     2.4082218   -0.0084651    1.4155559 
C     1.1723419   -0.0026866    2.1158165 
C    -0.0256651   -0.0106673    1.4302066 
O    -2.5077745   -0.1281921   -0.1452517 
O     2.3585053    0.0469483   -2.9052752 
O     3.6377721   -0.0127528   -0.6492763 
C     4.8383942   -0.0222487    0.1212100 
O    -1.2307511    0.0067851    2.1100262 
H     1.1974702    0.0107411    3.2031378 
H     3.3282588   -0.0104899    1.9955580 
H     0.9131271    0.0744562   -4.8161519 
H    -1.2254711    0.0624495   -6.1055047 
H    -3.4169412   -0.0090786   -4.8637734 
H    -3.4083783   -0.0706284   -2.3671910 
H     5.6571576   -0.0270473   -0.6091007 
H     4.9279162    0.8738076    0.7604705 
H     4.9151196   -0.9211286    0.7582162 
C    -1.1867749    0.0458853    3.5351653 
H    -2.2338552    0.0615088    3.8621533 
H    -0.6882234   -0.8437508    3.9592810 
H    -0.6761879    0.9510473    3.9094308 
