36
Energy =
C     3.7713491    0.0000180    1.8895010 
C     2.5253903    0.0000614    1.2002298 
C     1.3144255    0.0001143    2.0023971 
C     1.4622290    0.0002317    3.4184844 
C     2.6861915    0.0001494    4.0636204 
C     3.8873388    0.0000361    3.2681928 
C    -0.0032045    0.0000522    1.4161586 
C    -0.0304779   -0.0000505   -0.0256945 
C     1.1804843   -0.0000043   -0.8278475 
C     2.4981507   -0.0000374   -0.2416353 
C     1.0327177   -0.0000153   -2.2439372 
C    -0.1912489   -0.0000387   -2.8890698 
C    -1.3923845   -0.0001326   -2.0936374 
C    -1.2764105   -0.0002091   -0.7149660 
C    -0.2774388    0.0003344   -4.3958688 
C    -2.7457152   -0.0002909   -2.7619815 
O     3.5887607   -0.0001821   -0.9654445 
O    -1.0938269    0.0001015    2.1400201 
C     2.7723756    0.0002095    5.5704197 
C     5.2406634   -0.0002796    3.9365272 
H     0.5387009    0.0004443    4.0058210 
H     4.6733246    0.0000556    1.2696024 
H    -2.1783940   -0.0003800   -0.0950784 
H     1.9562552   -0.0000739   -2.8312600 
H     1.7709184    0.0001321    6.0226657 
H     3.3147570    0.8820116    5.9511217 
H     3.3149796   -0.8814128    5.9512193 
H     6.0485874   -0.0002029    3.1914797 
H     5.3793145    0.8810862    4.5849877 
H     5.3790644   -0.8820548    4.5844860 
H     0.7240153    0.0002682   -4.8481234 
H    -0.8201157   -0.8811506   -4.7768798 
H    -0.8197185    0.8822894   -4.7763620 
H    -3.5536372   -0.0001634   -2.0169307 
H    -2.8843027    0.8811003   -3.4104212 
H    -2.8842116   -0.8820373   -3.4099628 
