40
Energy =
C     3.7790165    0.0000531    1.8771422 
C     2.5216400   -0.0001063    1.1992199 
C     1.3143299   -0.0001842    1.9989250 
C     1.4472589   -0.0002645    3.4212749 
C     2.6751384   -0.0001090    4.0470345 
C     3.8758037    0.0000782    3.2519489 
C    -0.0005547   -0.0001258    1.4142322 
C    -0.0267129   -0.0000613   -0.0246780 
C     1.1805990   -0.0001385   -0.8243762 
C     2.4954965   -0.0001758   -0.2396852 
C     1.0476750   -0.0001879   -2.2467287 
C    -0.1802193   -0.0000132   -2.8724666 
C    -1.3808666    0.0001710   -2.0773662 
C    -1.2840721    0.0001195   -0.7025758 
O    -0.3827329   -0.0000732   -4.2396606 
O    -2.5603588    0.0004229   -2.7976746 
O     3.5890921   -0.0002519   -0.9650986 
O    -1.0941479   -0.0000450    2.1396801 
O     2.8776387   -0.0001669    5.4142281 
O     5.0552691    0.0003250    3.9722542 
H     1.9758187   -0.0002768   -2.8191369 
H    -2.1738881    0.0001811   -0.0723878 
H     4.6688414    0.0001099    1.2469710 
H     0.5191072   -0.0003604    3.9936680 
C     6.2680219    0.0010552    3.2139814 
H     7.0822932    0.0010830    3.9478783 
H     6.3452721   -0.8961848    2.5769325 
H     6.3445553    0.8988372    2.5776208 
C     1.7063127   -0.0008650    6.2353566 
H     2.0648796   -0.0006846    7.2712181 
H     1.0894812    0.8961900    6.0577927 
H     1.0905580   -0.8986393    6.0577146 
C     0.7885834   -0.0008733   -5.0608021 
H     0.4300055   -0.0007505   -6.0966599 
H     1.4054533    0.8961692   -4.8833086 
H     1.4043054   -0.8986592   -4.8831047 
C    -3.7730916    0.0010038   -2.0393814 
H    -4.5873814    0.0009917   -2.7732592 
H    -3.8502495   -0.8962753   -1.4023728 
H    -3.8497049    0.8987419   -1.4029669 
