23
Energy =
C    -1.3415418    0.0001965   -0.6859698 
C    -0.0572206    0.0000601   -0.0262222 
C     1.1928796    0.0000637   -0.7675553 
C     1.2560033    0.0001173   -2.2161389 
C    -0.0267649    0.0000938   -2.8767889 
C    -1.2834208    0.0001030   -2.1269200 
C     2.4058656    0.0000206   -0.0212676 
C     2.4262860   -0.0001186    1.3607151 
C     1.1998603   -0.0001338    2.0849928 
C     0.0020860   -0.0000491    1.3961354 
C    -2.4831650   -0.0000168   -2.8797480 
C    -2.4593077   -0.0001478   -4.2597823 
C    -1.1881844   -0.0000363   -4.9003183 
N    -0.0330891    0.0001125   -4.2541671 
O     2.3873850    0.0000357   -2.8569747 
O    -2.4680965    0.0004821   -0.0306737 
H    -0.9513828   -0.0000493    1.9302221 
H     1.2094491   -0.0001651    3.1775172 
H     3.3776878   -0.0001986    1.8982400 
H     3.3363679    0.0001085   -0.5943792 
H    -1.1347867   -0.0000605   -5.9961867 
H    -3.3753959   -0.0003626   -4.8532443 
H    -3.4247940   -0.0000552   -2.3244571 
