30
Energy =
O    -1.4800710    2.3541289    0.1943777 
C    -0.7891716    1.2551100    0.0140359 
C     0.4302745    1.2311173   -0.7513911 
C     1.1989237    0.0094475   -0.9509070 
C     2.4087388    0.0576409   -1.7228656 
C     2.8044395    1.2557138   -2.2461795 
O     3.8960632    1.5359159   -3.0688821 
C     3.9805831    2.9746659   -3.0700776 
O     2.6697765    3.4831298   -2.7521097 
C     2.0573972    2.4423164   -2.0528171 
C     0.8981435    2.4589187   -1.3308240 
C     0.7894217   -1.2552401   -0.3968772 
O     1.4802864   -2.3540057   -0.5770719 
C    -0.4301628   -1.2311906    0.3685381 
C    -1.1987897   -0.0094789    0.5679605 
C    -2.4087393   -0.0576687    1.3397627 
C    -2.8044055   -1.2556985    1.8631750 
O    -3.8961180   -1.5358663    2.6857682 
C    -3.9807581   -2.9746173    2.6868166 
O    -2.6699486   -3.4831536    2.3690328 
C    -2.0574420   -2.4423490    1.6698182 
C    -0.8980377   -2.4589307    0.9480408 
H     2.9711004   -0.8651665   -1.8705876 
H     4.6972058    3.2995611   -2.2919950 
H     4.2746513    3.3220021   -4.0678140 
H     0.3102120    3.3651881   -1.1802711 
H    -2.9711304    0.8651331    1.4874124 
H    -4.6972920   -3.2993565    1.9085854 
H    -4.2750250   -3.3220369    3.6844700 
H    -0.3101259   -3.3652304    0.7975780 
