20
Energy =
C    -1.2190701    0.0008437   -0.6884008 
C     0.0050076   -0.0001960    0.0246463 
C     1.2486159   -0.0005964   -0.7281052 
C     1.1757726   -0.0012861   -2.1467946 
C    -0.0306016   -0.0010908   -2.8833765 
C    -1.3211222    0.0010223   -2.0980783 
C     2.4649371   -0.0000606    0.0060278 
C     2.4011605   -0.0003178    1.4046637 
C     1.1533198   -0.0009870    2.0451714 
N    -0.0193948   -0.0006837    1.3943446 
C     3.7943787    0.0011029   -0.7022571 
O    -0.0722691   -0.0024495   -4.1722665 
O    -2.4466658    0.0026707   -2.7255512 
H     2.1008546   -0.0024047   -2.7318719 
H    -2.1484862    0.0015461   -0.1070696 
H     1.1004288   -0.0015752    3.1400237 
H     3.3180935    0.0000197    1.9992214 
H     4.6268071    0.0017274    0.0150320 
H     3.9034044    0.8833784   -1.3544751 
H     3.9050324   -0.8806634   -1.3548710 
