23
Energy =
C     1.2178695    0.0001634    3.5916250 
C     1.3075174    0.0000487    2.1545847 
C     0.1001080   -0.0000157    1.4669231 
C    -1.1980579    0.0000918    2.0594375 
C    -1.2684542    0.0000087    3.4518750 
C    -0.0296311   -0.0000289    4.1884598 
C    -2.1969091    0.0002806    0.9523476 
C    -1.4676232   -0.0002859   -0.2905639 
C    -0.0371936   -0.0001784    0.0419971 
C     2.5117857    0.0000286    1.3601671 
C     2.4033213    0.0000419   -0.0230343 
C     1.1429145   -0.0001262   -0.7032555 
O    -1.9563186   -0.0004188   -1.5102604 
O    -3.4966185    0.0008018    1.1102440 
C    -2.5788508   -0.0001293    4.2018097 
H     3.4914444    0.0000705    1.8441203 
H     3.3171376    0.0001112   -0.6243680 
H     1.1184294   -0.0002360   -1.7967245 
H     2.1252389    0.0003024    4.2008723 
H    -0.0929846    0.0000031    5.2816975 
H    -3.4134528    0.0004079    3.4879227 
H    -2.6679730    0.8837694    4.8561783 
H    -2.6683284   -0.8847107    4.8552126 
