28
Energy =
C     2.2591968    4.1180553    1.0541452 
O     1.0267717    3.4308244    0.8215784 
C     1.0759989    2.0910428    0.4806497 
C    -0.1393699    1.4287585    0.2708518 
C    -1.5678332    1.7964976    0.3164276 
O    -2.0552676    2.9803011    0.5995762 
C    -2.3276520    0.6095440   -0.0090058 
O    -3.6335718    0.5144659   -0.0761062 
C    -1.3599336   -0.4774008   -0.2533021 
C    -1.4362172   -1.8316198   -0.5994144 
O    -2.6940728   -2.3796373   -0.7759757 
C    -2.7880243   -3.7585894   -1.1444598 
C    -0.2383481   -2.6034901   -0.7589669 
C     1.0254666   -2.0581803   -0.5796518 
C     1.1469460   -0.6753943   -0.2228070 
C     2.3692652    0.0398134   -0.0010986 
C     2.3157778    1.3842590    0.3406208 
C    -0.0380905    0.0438689   -0.0781928 
H     2.8249192    3.6742653    1.8910472 
H     2.8974905    4.1323005    0.1545769 
H     1.9820512    5.1466430    1.3140834 
H    -2.3529933   -4.4198388   -0.3758210 
H    -2.2976173   -3.9587899   -2.1122365 
H    -3.8601517   -3.9701508   -1.2344703 
H    -0.3160912   -3.6561953   -1.0301551 
H     1.9146197   -2.6787259   -0.7106051 
H     3.3337177   -0.4636426   -0.0983509 
H     3.2528134    1.9156156    0.5063633 
