19
Energy =
O    -0.1814220    3.6137360   -0.0290989 
C    -0.4703963    2.3381408   -0.0274362 
C    -1.7816098    1.7283779   -0.0558753 
O    -2.9425410    2.3211220   -0.0898610 
C    -1.5833107    0.2590775   -0.0402284 
C    -2.3929470   -0.8693400   -0.0521906 
N    -1.8785073   -2.1594740   -0.0309645 
C    -0.5647225   -2.3391102    0.0022506 
C     0.3796714   -1.2539628    0.0182189 
C    -0.1860419    0.0095520   -0.0039710 
C     0.5209473    1.2489208    0.0047698 
C     1.9124370    1.1581328    0.0394194 
C     2.5359176   -0.1373900    0.0629783 
C     1.8229783   -1.3244752    0.0535267 
H    -3.4844121   -0.8024486   -0.0793649 
H    -0.2087237   -3.3762568    0.0176924 
H     2.5390888    2.0538948    0.0486267 
H     3.6283202   -0.1798548    0.0895158 
H     2.3350736   -2.2887421    0.0720922 
