18
Energy =
O     3.6621763   -0.8492997   -0.3940179 
C     2.5159211   -0.2623298   -0.2397183 
C     2.2612010    1.1558148   -0.0795347 
O     3.1283597    2.1200390   -0.0587016 
C     0.7932997    1.3238151    0.0614030 
N     0.0440228    2.4195464    0.2319220 
C    -1.3293457    2.1874301    0.3262297 
C    -1.9657422    0.9650940    0.2613964 
C    -1.1518934   -0.2155389    0.0767968 
C     0.1962158    0.0365567   -0.0134504 
C     1.2019282   -0.9508971   -0.1954691 
N     0.8813493   -2.2468553   -0.2941403 
C    -0.4838525   -2.5265609   -0.2052678 
C    -1.5033392   -1.6139730   -0.0296105 
H    -1.9286947    3.0921941    0.4656562 
H    -3.0521011    0.9068950    0.3490377 
H    -0.7300688   -3.5895360   -0.2877944 
H    -2.5394362   -1.9524945    0.0252631 
