64
Energy =
C     7.2034736    6.8535621    9.1014769 
C     8.1193581    7.8027676    6.9675697 
N     6.9521199    8.6503429    6.5523826 
C     7.0411923    9.2287543    5.2040739 
C     6.0992667    8.4512978    4.2889240 
C     4.6793630    8.6656886    4.8047099 
N     4.6404891    8.8203196    6.2713004 
C     3.3171465    8.9242992    6.8947687 
C     3.1513197    7.7554618    7.8620740 
C     4.2215773    7.8776660    8.9382811 
N     5.4912482    8.4164000    8.4027219 
C     6.6474829    8.2311443    9.3161275 
C     5.7042734    8.5821731    7.0787479 
H     8.8746480    8.4843565    7.3981630 
H     8.5352600    7.3805540    6.0402938 
H     6.7613798   10.2938578    5.2393959 
H     8.0849984    9.1657174    4.8793721 
H     6.1693697    8.7867365    3.2456643 
H     6.3799217    7.3880031    4.3235921 
H     4.2520540    9.5842401    4.3747253 
H     4.0215728    7.8282351    4.5219187 
H     3.2308780    9.8866075    7.4250839 
H     2.5679014    8.9092456    6.0952070 
H     2.1554606    7.7561868    8.3240666 
H     3.2621406    6.8154559    7.3002114 
H     3.8935382    8.5694615    9.7294420 
H     4.4435325    6.9100005    9.4157491 
H     7.3671850    9.0388921    9.1204973 
H     6.2628729    8.3395372   10.3380071 
O     8.7167024    5.1004151    6.2174109 
C     7.2060219    4.4941736    9.5399187 
C     7.8436441    4.2755598    8.3071784 
C     8.1774272    5.3240654    7.3891864 
C     6.8496874    3.3194754   10.4024482 
N     5.9531054    2.2780557    9.7989313 
C     5.0234045    1.6270488   10.7331519 
C     3.6242793    2.1796746   10.4751045 
C     3.2288577    1.7793397    9.0565639 
N     4.3950369    1.7158427    8.1547563 
C     4.1256399    1.4471394    6.7383129 
C     4.6049328    2.6465604    5.9254539 
C     6.1077676    2.7831949    6.1286029 
N     6.5202456    2.4128530    7.5010983 
C     7.8982376    2.8484393    7.8452769 
C     5.6246810    2.1838159    8.4868089 
H     7.7421010    2.7935800   10.7857005 
H     6.3027603    3.7293169   11.2647471 
H     5.0476076    0.5361318   10.5793811 
H     5.3713005    1.8315502   11.7507927 
H     2.8888805    1.7875227   11.1900867 
H     3.6567369    3.2739570   10.5866638 
H     2.7698398    0.7791195    9.0559369 
H     2.4940510    2.4832707    8.6333662 
H     4.6507436    0.5289552    6.4282189 
H     3.0489406    1.2756588    6.6282348 
H     4.3827109    2.5217544    4.8576764 
H     4.0751960    3.5445386    6.2782154 
H     6.6505490    2.1128673    5.4446097 
H     6.4618070    3.8086283    5.9376229 
H     8.2964618    2.1509531    8.5966485 
H     8.4955840    2.7584421    6.9294842 
C     6.8398622    5.8022467   10.0046748 
C     7.8293640    6.6339482    7.8628237 
O     6.2027470    6.0171845   11.1281588 
