18
Energy =
C    -0.0413753    0.0501058   -0.0609015 
C    -0.0221752    0.0198329    1.3885394 
C     1.1898478   -0.0118216    2.1033383 
C     2.4662425    0.0499092    1.4609235 
C     2.4469818    0.0197845    0.0114938 
C     1.2350395   -0.0116469   -0.7033282 
N    -1.2692105   -0.0383791    2.0931013 
O     1.2788336    0.0035471    3.4709792 
O     3.5073729    0.0746492    2.2342947 
N     3.6940340   -0.0384364   -0.6931208 
O     1.1461327    0.0037732   -2.0709355 
O    -1.0824049    0.0750250   -0.8343852 
O     3.7654779   -0.7063158   -1.7530351 
O     4.6850349    0.5643589   -0.2253961 
O    -1.3404614   -0.7054214    3.1535808 
O    -2.2604971    0.5635986    1.6248531 
H     0.1421672    0.0438761   -2.1583892 
H     2.2827955    0.0435607    3.5583838 
