22
Energy =
C    -0.0417985   -0.1792730   -0.0603017 
C    -0.0226508   -0.1635997    1.3739840 
C     1.1895823   -0.1731350    2.0888734 
C     2.4666964   -0.1785123    1.4604554 
C     2.4475414   -0.1637699    0.0261306 
C     1.2353224   -0.1740555   -0.6887476 
N    -1.2991568   -0.1175728    2.0050089 
H     1.1764133   -0.1899693    3.1843593 
O     3.6174609   -0.2061663    2.1230708 
N     3.7240161   -0.1178554   -0.6048633 
H     1.2484744   -0.1916047   -1.7842199 
O    -1.1925503   -0.2075664   -0.7229395 
H     4.3993565   -0.3650620    0.1293224 
C     3.9090954   -0.8971997   -1.8241972 
H    -1.9743901   -0.3648224    1.2707176 
C    -1.4842740   -0.8974324    3.2240508 
H     4.9779713   -0.9234444   -2.0803368 
H     3.5399041   -1.9415565   -1.7403168 
H     3.3792412   -0.4328318   -2.6703645 
H    -2.5531187   -0.9234769    3.4803577 
H    -1.1154098   -1.9418594    3.1396196 
H    -0.9541482   -0.4336019    4.0703346 
