20
Energy =
C    -0.1082141   -0.0530396    0.0246108 
C     0.0313689   -0.0604934    1.4601928 
C     1.2918176   -0.0351462    2.0750550 
C     2.5331145   -0.0533055    1.3754396 
C     2.3935069   -0.0604721   -0.0601608 
C     1.1330700   -0.0349127   -0.6750089 
N    -1.1900872   -0.0110176    2.1939875 
Cl    1.3792631    0.0309664    3.8461370 
O     3.7154387   -0.0340022    1.9361187 
N     3.6149669   -0.0109513   -0.7939580 
Cl    1.0456209    0.0314957   -2.4460543 
O    -1.2905585   -0.0334865   -0.5360917 
H     4.3210693    0.1328836   -0.0541092 
N     3.9052584   -1.2811186   -1.4664336 
H    -1.8961832    0.1329465    1.4541574 
N    -1.4804160   -1.2812481    2.8663187 
H     4.6216879   -1.0720714   -2.1672367 
H     4.3496050   -1.9137802   -0.7869491 
H    -2.1967845   -1.0722533    3.5671984 
H    -1.9248365   -1.9138028    2.1867844 
