40
Energy =
C     0.1734391   -0.0813217   -0.3622266 
C    -0.1446870    0.1006277    1.0334577 
C     0.8495136    0.1470992    2.0201404 
C     2.2523505    0.0806631    1.7628810 
C     2.5704646   -0.1012672    0.3671649 
C     1.5762669   -0.1477822   -0.6195279 
C    -1.6070648    0.2034074    1.3490899 
Cl    0.3855846    0.3187339    3.7262722 
O     3.1756803    0.1849434    2.6718578 
C     4.0328523   -0.2037557    0.0514827 
Cl    2.0401453   -0.3194937   -2.3256375 
O    -0.7499559   -0.1855218   -1.2711743 
H     4.2309259   -0.7116287   -0.8972125 
N     4.6571058    1.1406846   -0.0541824 
H     4.5518452   -0.7228083    0.8671127 
C     4.9912797    1.8043881   -1.2189828 
C     5.4344264    3.0479002   -0.8565972 
N     5.3531308    3.1178867    0.5232836 
C     4.8791763    1.9517558    0.9924289 
H     4.6252350    1.6837167    2.0166599 
C     5.7283127    4.2712481    1.3412951 
H     5.8001486    3.8752849   -1.4517369 
H     4.8825858    1.3416962   -2.1917798 
H     5.5313359    4.0360310    2.3912941 
H     6.7944400    4.4851616    1.2040932 
H     5.1323023    5.1398425    1.0392615 
H    -1.8049909    0.7110589    2.2979372 
H    -2.1259108    0.7228587    0.5336223 
N    -2.2317690   -1.1408443    1.4543429 
C    -2.5658896   -1.8048933    2.6189614 
C    -3.0099660   -3.0479532    2.2561668 
N    -2.9292932   -3.1173247    0.8762212 
C    -2.4547428   -1.9512889    0.4074370 
H    -2.2008408   -1.6830255   -0.6167465 
C    -3.3049185   -4.2702936    0.0578526 
H    -3.3759451   -3.8753918    2.8510730 
H    -2.4566645   -1.3426539    3.5919148 
H    -3.1122572   -4.0330875   -0.9925011 
H    -2.7061046   -5.1381599    0.3564425 
H    -4.3701348   -4.4864927    0.1985563 
