36
Energy =
C    -0.0110680   -0.2597127   -0.1351642 
C     0.0570288   -0.1204057    1.2938622 
C     1.2820208    0.1188730    1.9999927 
C     2.5536040    0.2536212    1.3434972 
C     2.4723138    0.0894105   -0.0983921 
C     1.2775105   -0.0940719   -0.7870819 
C    -1.1597949   -0.2238714    2.0045924 
C     1.2757911    0.2282985    3.4086217 
O     3.6562814    0.4829853    1.9425497 
O    -1.0810210   -0.4927822   -0.7893825 
N     1.2712202    0.3173477    4.5763763 
N    -2.1689697   -0.3068269    2.5930940 
N     1.2590773   -0.0703578   -2.2122104 
N     3.7149644    0.0671914   -0.7968690 
C     4.1376448   -0.9003219   -1.7068605 
C     5.4235076   -0.5962509   -2.0416374 
N     5.7729695    0.5419356   -1.3313854 
C     4.7351809    0.9238132   -0.5767402 
H     4.7059474    1.7775642    0.0854129 
C     7.0742517    1.2096666   -1.3864874 
H     6.1171082   -1.0889734   -2.7113451 
H     3.4961100   -1.7153401   -2.0148923 
H     7.0425842    2.0961016   -0.7466903 
H     7.8489869    0.5215117   -1.0299347 
H     7.2839699    1.5054543   -2.4203997 
C     1.8320177    0.9003379   -3.0320702 
C     1.4769254    0.5987956   -4.3130091 
N     0.6894379   -0.5410232   -4.2616532 
C     0.5582053   -0.9263328   -2.9861860 
H     0.0016063   -1.7817882   -2.6306720 
C     0.0863851   -1.2080219   -5.4164350 
H     1.7072515    1.0942800   -5.2477099 
H     2.4182737    1.7159083   -2.6297613 
H    -0.4629362   -2.0871917   -5.0678890 
H    -0.6005711   -0.5153404   -5.9156681 
H     0.8775673   -1.5144806   -6.1094753 
