38
Energy =
C    -0.0324340    0.2824502   -0.1066690 
C    -0.0198734    0.1166202    1.3420253 
C     1.1453357   -0.1063341    2.0858812 
C     2.4575075   -0.2832566    1.5065462 
C     2.4450720   -0.1168430    0.0579126 
C     1.2798089    0.1060727   -0.6859611 
N    -1.3030269    0.0466940    1.9995615 
O     3.4912862   -0.4702845    2.2128300 
N     3.7282571   -0.0461507   -0.5994247 
O    -1.0664404    0.4686835   -0.8128524 
O    -1.4937307   -0.8568175    2.8458146 
O    -2.1745957    0.8761509    1.6823261 
O     3.9185347    0.8574578   -1.4457122 
O     4.6003841   -0.8749620   -0.2819856 
N     1.1020287   -0.0544281    3.5073099 
N     1.3231500    0.0544396   -2.1074072 
C     0.4742468    0.9202515    4.2775174 
C     0.7518969    0.6385802    5.5822236 
N     1.5461545   -0.4967038    5.5940350 
C     1.7530644   -0.8988118    4.3329603 
H     2.3278658   -1.7609327    4.0265831 
C     2.0874370   -1.1419989    6.7903722 
H     0.4635841    1.1459438    6.4941880 
H    -0.0960936    1.7239644    3.8298856 
H     2.6525413   -2.0282539    6.4876980 
H     2.7494168   -0.4416184    7.3124176 
H     1.2614455   -1.4354302    7.4476412 
C     1.9514020   -0.9197620   -2.8778330 
C     1.6732804   -0.6381820   -4.1824596 
N     0.8782644    0.4965738   -4.1940129 
C     0.6714221    0.8984871   -2.9328670 
H     0.0960661    1.7601749   -2.6262731 
C     0.3367335    1.1419095   -5.3902124 
H     1.9617578   -1.1452720   -5.0945223 
H     2.5221514   -1.7232724   -2.4303572 
H    -0.2340633    2.0242817   -5.0868881 
H     1.1627782    1.4414124   -6.0447012 
H    -0.3200616    0.4391743   -5.9155998 
