23
Energy =
C    -0.0529003   -0.0004715    0.0984300 
C     0.0126130   -0.0006815    1.5684519 
C     1.3252515    0.0004735    2.1399079 
C     2.4897452    0.0011960    1.3733002 
C     2.4183675    0.0005993   -0.0198045 
O    -1.0284260   -0.0018865    2.3339509 
H     1.3779893    0.0006369    3.2327754 
H     3.4646662    0.0021095    1.8709342 
H     3.3132186    0.0006438   -0.6415116 
C    -1.3030198   -0.0003591   -0.6461651 
C    -1.2255389    0.0001671   -2.0852506 
N    -0.0513908   -0.0003265   -2.7958927 
C     1.1281533   -0.0012685   -2.1438976 
C     1.1598589   -0.0002900   -0.6521267 
O     2.2238975   -0.0030200   -2.7992850 
C    -2.4328449    0.0008880   -2.8325442 
C    -3.6797389    0.0008925   -2.2187906 
C    -3.7590028   -0.0000373   -0.8151946 
C    -2.5917228   -0.0005279   -0.0529653 
H    -2.3449976    0.0013271   -3.9221706 
H    -4.5886073    0.0014661   -2.8252508 
H    -4.7318180   -0.0003098   -0.3181510 
H    -2.6323608   -0.0012214    1.0347558 
