16
Energy =
C     0.0055199   -0.0002275    0.0163641 
C    -0.0516090   -0.0004361    1.4801906 
C     1.2215890    0.0000115    2.1305583 
C     2.4288635    0.0003220    1.4188606 
C     2.4613699    0.0001591    0.0217141 
O    -1.1697356   -0.0009039    2.1181672 
H     1.2266900    0.0000918    3.2245902 
H     3.3701105    0.0007063    1.9775777 
H     3.3994346    0.0001546   -0.5334292 
C    -1.1758810    0.0001610   -0.7704503 
N    -1.1889545    0.0009135   -2.0948951 
N    -0.0130066    0.0008223   -2.7983639 
C     1.1945666   -0.0003022   -2.1547943 
C     1.2405916   -0.0001428   -0.6820126 
H    -2.1510533    0.0000795   -0.2757485 
O     2.2689589   -0.0014091   -2.8448289 
