48
Energy =
C    -0.0268935    0.0613937    0.0048519 
C     0.0387165    0.3385364    1.4293389 
C     1.3264342    0.4661710    2.0169179 
C     2.5042031    0.3774355    1.2866688 
C     2.4736369    0.1077326   -0.0865495 
C     1.2146375   -0.0628184   -0.7524383 
O    -0.9807989    0.4920297    2.2305769 
O     1.3123423    0.7230797    3.3753650 
H     3.4626309    0.5248055    1.7927809 
C     3.7864456    0.1046932   -0.8108816 
C     1.1491561   -0.3409084   -2.1767365 
C    -1.2858953   -0.1077103   -0.6614172 
C    -0.1385527   -0.4667654   -2.7647021 
C    -1.3164019   -0.3765294   -2.0348074 
O     2.1687032   -0.4963466   -2.9775521 
O    -0.1244156   -0.7236509   -4.1231556 
H    -2.2748803   -0.5221807   -2.5413248 
C    -2.5990525   -0.1026913    0.0622288 
H     3.8906859   -0.7297981   -1.5108723 
N     3.9733874    1.3295130   -1.6491002 
H     4.6192176    0.0949316   -0.0932137 
H    -3.4314497   -0.0896856   -0.6558114 
N    -2.7897387   -1.3284614    0.8982475 
H    -2.7015367    0.7309249    0.7635258 
C    -3.7909727   -1.5233515    1.8273445 
C    -3.5769589   -2.7476916    2.4005386 
N    -2.4417537   -3.2728773    1.8098244 
C    -1.9816709   -2.3933889    0.9029944 
H    -1.0942018   -2.5093404    0.2941015 
C    -1.8366260   -4.5674311    2.1216757 
H    -4.1242244   -3.2824934    3.1670177 
H    -4.5596676   -0.7817704    2.0049207 
H    -0.9450275   -4.6979498    1.5013630 
H    -1.5551320   -4.5924216    3.1805866 
H    -2.5545269   -5.3675069    1.9081223 
C     4.9708158    1.5237200   -2.5823861 
C     4.7541343    2.7473705   -3.1560339 
N     3.6211178    3.2728429   -2.5613737 
C     3.1649270    2.3941780   -1.6517776 
H     2.2799388    2.5105716   -1.0393586 
C     3.0143955    4.5668980   -2.8721642 
H     5.2981093    3.2814843   -3.9253255 
H     5.7388112    0.7820353   -2.7625052 
H     2.1239237    4.6968152   -2.2501126 
H     3.7320695    5.3676182   -2.6602373 
H     2.7307249    4.5914153   -3.9305008 
H     0.3202251    0.7404190    3.5260388 
H     0.8677200   -0.7426490   -4.2734856 
