50
Energy =
C    -0.0357766    0.0800755   -0.0115389 
C     0.0260038    0.3767123    1.4202780 
C     1.3197889    0.4225432    2.0254742 
C     2.4775101    0.2928846    1.2574806 
C     2.4467094    0.0480563   -0.1190158 
C     1.1837820   -0.0858494   -0.7865139 
O    -1.0198632    0.6178987    2.1498001 
N     1.3651352    0.6112272    3.4330124 
H     3.4509436    0.3987039    1.7504089 
C     3.7641569    0.0546995   -0.8341317 
C     1.1205353   -0.3571045   -2.2236412 
C    -1.2997168   -0.0587946   -0.6762854 
C    -0.1749745   -0.4396520   -2.8195423 
C    -1.3322928   -0.3246223   -2.0480356 
O     2.1687480   -0.5303424   -2.9708667 
N    -0.2268067   -0.7486794   -4.2067866 
H    -2.3048112   -0.4590873   -2.5353098 
C    -2.6142893   -0.0724737    0.0453069 
H     3.8770077   -0.7672919   -1.5465278 
N     3.9504760    1.2931225   -1.6552204 
H     4.5920294    0.0442523   -0.1095354 
H    -3.4444087   -0.1075421   -0.6760129 
N    -2.7644103   -1.2846169    0.9104742 
H    -2.7456525    0.7706336    0.7292812 
C    -3.7224991   -1.4721559    1.8850988 
C    -3.4774567   -2.6877381    2.4646593 
N    -2.3659929   -3.2154704    1.8317756 
C    -1.9510991   -2.3454288    0.8935340 
H    -1.0885740   -2.4617021    0.2498727 
C    -1.7403203   -4.5022211    2.1336238 
H    -3.9870298   -3.2144557    3.2621154 
H    -4.4854175   -0.7311044    2.0878972 
H    -0.8712922   -4.6326401    1.4820153 
H    -1.4193155   -4.5152944    3.1815091 
H    -2.4589881   -5.3101778    1.9544943 
C     4.9477071    1.5083333   -2.5838512 
C     4.7235764    2.7389427   -3.1400364 
N     3.5856149    3.2474459   -2.5396742 
C     3.1347346    2.3517333   -1.6432375 
H     2.2455895    2.4485823   -1.0333598 
C     2.9732504    4.5438286   -2.8272862 
H     5.2649207    3.2884117   -3.9003911 
H     5.7206869    0.7744974   -2.7744916 
H     2.0628942    4.6435889   -2.2288431 
H     3.6738563    5.3462630   -2.5690067 
H     2.7206945    4.5993712   -3.8923203 
H     2.1097650    1.2432631    3.7286001 
H     0.4544158    0.9760476    3.7306495 
H    -0.9392007   -0.2155857   -4.7061742 
H     0.6989818   -0.5636439   -4.6064534 
