58
Energy =
C     0.0719426   -0.1337568   -0.0232472 
C     0.1043217   -0.2193326    1.4053989 
C     1.2878244   -0.2333113    2.1051661 
C     2.5209520   -0.1901264    1.3997815 
C     2.5489157   -0.0798677    0.0187766 
H    -0.8493204   -0.2845026    1.9366936 
H     1.2884362   -0.3028312    3.1945451 
H     3.4616366   -0.2587225    1.9505590 
C     3.9055820   -0.1147909   -0.6411116 
C    -1.1485678   -0.1604278   -0.7120102 
C    -1.1950255   -0.0785839   -2.1148878 
C     0.0193479    0.0780656   -2.8653042 
C     1.3200752    0.1624568   -2.1882791 
C     1.3326164   -0.0164875   -0.7452072 
H    -2.0870171   -0.2451951   -0.1619478 
O     2.3811493    0.3943382   -2.8668870 
C    -2.4957672   -0.1632611   -2.7918879 
C    -2.5084193    0.0165989   -4.2348692 
C    -1.2477731    0.1340667   -4.9568514 
C    -0.0271862    0.1603679   -4.2681680 
O    -3.5566004   -0.3960269   -2.1132403 
H     0.9111669    0.2454240   -4.8184072 
C    -1.2802692    0.2205057   -6.3854502 
C    -2.4638247    0.2354128   -7.0850914 
C    -3.6969108    0.1921018   -6.3796250 
C    -3.7247755    0.0808229   -4.9986968 
H    -0.3266695    0.2857485   -6.9167998 
H    -2.4645067    0.3058124   -8.1744133 
H    -4.6376352    0.2614308   -6.9302445 
C    -5.0813545    0.1156881   -4.3386263 
N     4.0738423   -1.3268515   -1.4772765 
H     4.0571686    0.7316250   -1.3176254 
H     4.6981147   -0.1351432    0.1206674 
C     4.9859642   -1.4776690   -2.5008623 
C     4.7938535   -2.7233926   -3.0318177 
N     3.7592172   -3.3068545   -2.3215914 
C     3.3389057   -2.4417290   -1.3833955 
H     2.5300141   -2.6075474   -0.6838341 
C     3.2095200   -4.6423967   -2.5525513 
H     5.2905231   -3.2359164   -3.8461080 
H     5.6778002   -0.6901491   -2.7708492 
H     2.3832833   -4.8088908   -1.8551801 
H     2.8411470   -4.7106609   -3.5824579 
H     3.9900649   -5.3934027   -2.3852647 
H    -5.8739570    0.1372802   -5.1002975 
H    -5.2333728   -0.7314128   -3.6630679 
N    -5.2489246    1.3268570   -3.5010452 
C    -6.1601395    1.4764982   -2.4764725 
C    -5.9672356    2.7214331   -1.9439649 
N    -4.9329939    3.3055696   -2.6542226 
C    -4.5137586    2.4416585   -3.5940156 
H    -3.7056047    2.6083435   -4.2942352 
C    -4.3833388    4.6409770   -2.4224702 
H    -6.4630666    3.2330005   -1.1285615 
H    -6.8517547    0.6886593   -2.2068503 
H    -3.5527157    4.8053016   -3.1151358 
H    -5.1620056    5.3926302   -2.5955973 
H    -4.0209698    4.7105663   -1.3905407 
