64
Energy =
C    -0.0203592   -0.0651741    0.0010973 
C    -0.0871957    0.0705289    1.4583299 
C     1.1639037    0.1774499    2.1235268 
C     2.3845861    0.3011557    1.4407684 
C     2.4368968    0.3059242    0.0554797 
O    -1.2076976    0.0946228    2.1206866 
H     3.3079830    0.4256526    2.0051048 
N     3.6537843    0.4994969   -0.6244178 
C    -1.2244316   -0.3076093   -0.7552476 
C    -1.1721625   -0.3026407   -2.1405185 
C     0.0484916   -0.1790546   -2.8232277 
C     1.2996489   -0.0724448   -2.1580382 
C     1.2328424    0.0631280   -0.7008468 
N    -2.4415242   -0.5006077   -0.0755715 
H    -2.0956412   -0.4267170   -2.7048178 
O     2.4201208   -0.0964436   -2.8204923 
C    -3.4096098   -1.4622249   -0.3341430 
H    -2.3157205   -0.2354918    0.9273312 
H     3.5278103    0.2345009   -1.6273548 
C     4.6217481    1.4612989   -0.3660411 
N     0.0193746   -0.1540859   -4.2509033 
C    -1.0221090    0.3566171   -5.0242683 
C    -0.6641875    0.2177743   -6.3347119 
N     0.5852758   -0.3703683   -6.3539320 
C     0.9871479   -0.5892104   -5.0887794 
H     1.9202194   -1.0357655   -4.7788327 
C     1.3575852   -0.6939578   -7.5520931 
H    -1.1825464    0.4974303   -7.2433733 
H    -1.9060169    0.7952504   -4.5815342 
H     2.3014184   -1.1564408   -7.2485376 
H     0.7884471   -1.3929175   -8.1756457 
H     1.5622904    0.2241986   -8.1151103 
N     1.1930423    0.1536333    3.5512455 
C     2.2351151   -0.3551348    4.3250728 
C     1.8773912   -0.2147968    5.6354110 
N     0.6274264    0.3722708    5.6541187 
C     0.2250204    0.5890117    4.3887651 
H    -0.7086017    1.0341149    4.0783309 
C    -0.1449120    0.6968107    6.8520075 
H     2.3961887   -0.4927685    6.5443359 
H     3.1194144   -0.7934328    3.8827759 
H    -1.0884473    1.1596434    6.5480620 
H    -0.3501584   -0.2209134    7.4155441 
H     0.4245232    1.3958399    7.4752023 
C    -4.5647494   -1.4638362    0.4887068 
C    -5.5744981   -2.4058167    0.3116385 
C    -5.4804628   -3.3792950   -0.6938103 
C    -4.3413350   -3.3913432   -1.5064736 
C    -3.3194185   -2.4540446   -1.3384367 
H    -4.6542494   -0.7069245    1.2715168 
H    -6.4493676   -2.3773888    0.9646619 
H    -6.2765996   -4.1104700   -0.8382617 
H    -4.2372573   -4.1485786   -2.2867084 
H    -2.4357580   -2.5068564   -1.9726221 
C     5.7757772    1.4642658   -1.1904465 
C     6.7855783    2.4061754   -1.0135097 
C     6.6926544    3.3784726   -0.0068052 
C     5.5545568    3.3893190    0.8073014 
C     4.5326527    2.4519363    0.6395344 
H     5.8643761    0.7084540   -1.9744227 
H     7.6595904    2.3787231   -1.6677193 
H     7.4888545    4.1096015    0.1375263 
H     5.4513358    4.1455817    1.5885932 
H     3.6498632    2.5038673    1.2749953 
