22
Energy =
C    -0.0445319   -0.0002911   -0.0589968 
C    -0.0385680   -0.0007428    1.3614396 
C     1.1795747   -0.0004809    2.0269224 
C     2.4144316    0.0002162    1.3477911 
C     2.5137090    0.0007346   -0.0699851 
H    -0.9917149   -0.0010015    1.8929653 
H     1.1865823   -0.0007020    3.1209797 
H     3.3487885    0.0004628    1.9157403 
O     3.6242080    0.0017223   -0.7080768 
N    -1.2265984   -0.0000755   -0.7262620 
C    -1.2111755    0.0000898   -2.0636233 
N     1.2266076   -0.0000517   -2.1282427 
C     1.2112090    0.0000824   -0.7908982 
C    -2.5136785    0.0007537   -2.7845440 
C    -2.4144306    0.0001966   -4.2023373 
C    -1.1796029   -0.0004963   -4.8814658 
C     0.0385547   -0.0007044   -4.2159873 
C     0.0445483   -0.0002705   -2.7954956 
O    -3.6241799    0.0017966   -2.1464443 
H    -3.3487821    0.0004386   -4.7703137 
H    -1.1865938   -0.0007637   -5.9755210 
H     0.9916429   -0.0009134   -4.7476357 
