52
Energy =
C     0.0480857    0.0486135   -0.1558066 
C    -0.0735782    0.0407400    1.2476443 
C     1.0334251   -0.0083380    2.1003128 
C     2.3621053   -0.0488581    1.5313553 
C     2.4837534   -0.0410131    0.1278762 
C     1.3767347    0.0079233   -0.7247937 
H    -1.0665699    0.0734646    1.7034550 
C     0.8388682   -0.0111932    3.5626839 
C     3.4972078   -0.0963930    2.3989317 
H     3.4767463   -0.0738026   -0.3279477 
C     1.5711909    0.0107189   -2.1871798 
C    -1.0870585    0.0962788   -1.0233033 
C     0.3901034    0.0765598   -2.9798709 
C    -0.8991014    0.1103051   -2.3908210 
O     2.7518615   -0.0564842   -2.7017230 
C     0.5482943    0.1072002   -4.4695108 
H    -1.7699948    0.1543504   -3.0527048 
H    -2.0896802    0.1309184   -0.5925548 
C     3.3091396   -0.1108651    3.7664564 
C     2.0199093   -0.0773695    4.3554261 
H     4.4998714   -0.1308888    1.9682536 
O    -0.3418167    0.0562651    4.0771391 
C     1.8615999   -0.1075817    5.8450413 
H     4.1799843   -0.1549505    4.4284053 
H    -0.3511065    0.4816124   -4.9723312 
H     1.4081184    0.7258778   -4.7619345 
N     0.8003302   -1.2458645   -5.0510789 
C    -0.0256379   -1.9435347   -5.9105764 
C     0.5663067   -3.1568297   -6.1405130 
N     1.7423056   -3.1732783   -5.4123491 
C     1.8669791   -2.0062781   -4.7587011 
H     2.6539588   -1.6931830   -4.0743170 
C     2.6973114   -4.2803687   -5.3605828 
H     0.2576767   -3.9959700   -6.7513602 
H    -0.9519888   -1.5249483   -6.2838655 
H     3.5191515   -4.0043222   -4.6936375 
H     2.1952665   -5.1757730   -4.9769516 
H     3.0862513   -4.4738344   -6.3666877 
H     2.7607514   -0.4822427    6.3481292 
N     1.6101959    1.2458776    6.4259877 
H     1.0014311   -0.7257102    6.1375643 
C     2.4385596    1.9454831    7.2816172 
C     1.8467777    3.1589333    7.5111821 
N     0.6685446    3.1735834    6.7865758 
C     0.5423351    2.0053207    6.1354968 
H    -0.2463052    1.6909700    5.4536531 
C    -0.2875167    4.2798330    6.7363669 
H     2.1568290    3.9992488    8.1196928 
H     3.3662925    1.5280043    7.6527037 
H    -1.1081167    4.0046948    6.0675262 
H    -0.6780745    4.4704853    7.7423991 
H     0.2142523    5.1766135    6.3556411 
