46
Energy =
C    -0.0235170    0.2069719   -0.0119590 
C     0.0397652    0.3171647    1.3898230 
C     1.2252502    0.1224298    2.1038231 
C     2.4341708   -0.2047919    1.3866275 
C     2.3709083   -0.3149119   -0.0151564 
C     1.1854091   -0.1202542   -0.7291514 
H    -0.8639452    0.5643352    1.9517245 
C     1.2155801    0.2578585    3.5746216 
C     3.6497420   -0.4005677    2.1119426 
H     3.2745793   -0.5622260   -0.5770600 
C     1.1950020   -0.2560766   -2.1999116 
C    -1.2391985    0.4023245   -0.7372081 
C    -0.0620278   -0.0104197   -2.8313609 
C    -1.2429713    0.2942421   -2.1095835 
O     2.2617803   -0.5630887   -2.8347934 
H    -2.1802515    0.4222330   -2.6552206 
H    -2.1600158    0.6244010   -0.1960865 
C     3.6533022   -0.2934614    3.4843885 
C     2.4723457    0.0111843    4.2061989 
H     4.5706223   -0.6224261    1.5708368 
O     0.1488989    0.5653823    4.2094244 
H     4.5905146   -0.4219982    4.0300129 
N    -0.1265596   -0.0378471   -4.2581058 
C    -0.9924252    0.7137301   -5.0501205 
C    -0.7172253    0.4158739   -6.3547600 
N     0.3120090   -0.5043973   -6.3521383 
C     0.6597611   -0.7689228   -5.0789001 
H     1.4384821   -1.4429193   -4.7525997 
C     0.9363557   -1.0912711   -7.5365730 
H    -1.1538132    0.7878149   -7.2731783 
H    -1.7058650    1.4071753   -4.6256394 
H     1.7181698   -1.7858293   -7.2153106 
H     0.1808661   -1.6317301   -8.1185315 
H     1.3791687   -0.2971885   -8.1491566 
N     2.5367280    0.0376729    5.6329656 
C     3.4034760   -0.7134828    6.4244345 
C     3.1282465   -0.4166046    7.7292853 
N     2.0981281    0.5026477    7.7273714 
C     1.7498218    0.7675261    6.4543419 
H     0.9702201    1.4407492    6.1285020 
C     1.4734620    1.0882884    8.9122443 
H     3.5653533   -0.7886544    8.6474117 
H     4.1176130   -1.4059340    5.9995154 
H     0.6917625    1.7832119    8.5914915 
H     1.0304882    0.2936253    9.5239680 
H     2.2288417    1.6281588    9.4948870 
