44
Energy =
C    -0.0380523    0.2124844   -0.0789868 
C    -0.0236392    0.4194098    1.3270207 
C     1.1681283    0.3121123    2.0124406 
C     2.3813891    0.0008466    1.3585442 
C     2.4748728   -0.2625423   -0.0443239 
H    -0.9577112    0.6477445    1.8398882 
H     1.1730032    0.4501686    3.0952594 
O     3.5506614   -0.5820417   -0.6415398 
N    -1.2024680    0.3273901   -0.7598099 
C    -1.1880244    0.1244115   -2.0804753 
N     1.2025384   -0.3276004   -2.0925140 
C     1.1880711   -0.1247181   -0.7718231 
C    -2.4749028    0.2620730   -2.8079248 
C    -2.3812724   -0.0005286   -4.2109719 
C    -1.1679456   -0.3112030   -4.8649322 
C     0.0237976   -0.4188227   -4.1794731 
C     0.0381441   -0.2125107   -2.7733540 
O    -3.5507812    0.5808395   -2.2106283 
H    -1.1727119   -0.4486673   -5.9478249 
H     0.9578656   -0.6468201   -4.6925097 
N     3.5810993   -0.0262831    2.1344011 
C     3.8413532    0.7508925    3.2608792 
C     5.0991148    0.4373265    3.6907907 
N     5.5968958   -0.5182675    2.8262549 
C     4.6706547   -0.7866887    1.8895303 
H     4.7693652   -1.4866688    1.0726241 
C     6.9241155   -1.1274014    2.9014762 
H     5.6793936    0.8190335    4.5215118 
H     3.1282147    1.4689317    3.6427062 
H     7.0140611   -1.8759857    2.1088076 
H     7.6901458   -0.3547784    2.7671651 
H     7.0479942   -1.6088263    3.8781871 
N    -3.5809665    0.0266049   -4.9868498 
C    -3.8409948   -0.7502440   -6.1136126 
C    -5.0990275   -0.4372402   -6.5431330 
N    -5.5972109    0.5176671   -5.6780736 
C    -4.6708994    0.7863074   -4.7414820 
H    -4.7697514    1.4860620   -3.9244132 
C    -6.9244068    1.1268235   -5.7534142 
H    -5.6792259   -0.8189461   -7.3739110 
H    -3.1276288   -1.4679053   -6.4957158 
H    -7.0175631    1.8692058   -4.9553135 
H    -7.0452821    1.6156017   -6.7268653 
H    -7.6904092    0.3527585   -5.6275782 
