54
Energy =
C    -0.2063987    0.0391760    0.1274170 
C    -0.2405845    0.1423895    1.5513671 
C     0.9066929    0.3772029    2.2899671 
C     2.1294051    0.5346154    1.6352475 
C     2.2700048    0.4682259    0.2297177 
H    -1.1718102    0.0169354    2.0959315 
H     0.8646293    0.4429833    3.3795326 
O     3.2952068    0.7855424    2.3241579 
O     3.4908965    0.6655978   -0.2202282 
C    -1.3881698   -0.2056755   -0.6257146 
C    -1.3755646   -0.3208047   -2.0386453 
C     1.0888030    0.0662839   -1.9799569 
C     1.0755277    0.1857515   -0.5674102 
C    -2.5713055   -0.5960349   -2.8365442 
C    -2.4291170   -0.6702361   -4.2415305 
C    -1.2046315   -0.5234454   -4.8952727 
C    -0.0571012   -0.2904628   -4.1564700 
C    -0.0925717   -0.1800837   -2.7330527 
O    -3.7945174   -0.7802467   -2.3876113 
O    -3.5955742   -0.9163045   -4.9311740 
H    -1.1614777   -0.5946334   -5.9844685 
H     0.8752761   -0.1715153   -4.7006280 
C     2.4117417    0.1151671   -2.7175055 
C    -2.7096798   -0.2627093    0.1139485 
H     3.9366865    0.8449604    1.5553820 
H    -4.2390316   -0.9664195   -4.1635150 
H     2.3178916    0.4591588   -3.7501681 
H     3.1218399    0.7509029   -2.1834079 
N     3.0298658   -1.2356650   -2.7737512 
N    -3.3283852    1.0870328    0.1891414 
H    -3.4208157   -0.8922231   -0.4260180 
H    -2.6130401   -0.6194785    1.1420935 
C     2.8691409   -2.1794760   -3.7722228 
C     3.5377306   -3.3047451   -3.3724555 
N     4.0866382   -3.0267479   -2.1328941 
C     3.7663225   -1.7702937   -1.7857518 
H     4.0306900   -1.2273154   -0.8789059 
C     4.8947369   -3.9471488   -1.3327717 
H     3.6711577   -4.2638006   -3.8574295 
H     2.2996623   -1.9774475   -4.6697068 
H     5.1508335   -3.4593001   -0.3876666 
H     4.3175084   -4.8571625   -1.1338093 
H     5.8107668   -4.1993191   -1.8792029 
C    -4.0555122    1.6396275   -0.7959229 
N    -4.3809228    2.8888691   -0.4281452 
C    -3.8450646    3.1437877    0.8220236 
C    -3.1792575    2.0117822    1.2070700 
H    -2.6194977    1.7934154    2.1067715 
H    -3.9846379    4.0932940    1.3237170 
C    -5.1819936    3.8236295   -1.2186645 
H    -4.3124450    1.1130355   -1.7145309 
H    -4.6023629    4.7362221   -1.3978848 
H    -5.4315040    3.3519800   -2.1736402 
H    -6.1018166    4.0675350   -0.6748589 
