60
Energy =
C    -0.0064397    0.5272018   -0.1549836 
C    -0.2796677    0.1476088    1.1900494 
C     0.7298412   -0.0158455    2.1734854 
C     2.0913685    0.1598883    1.6951701 
C     2.3780852    0.4986238    0.3878723 
C     1.3578034    0.7175445   -0.5775170 
N    -1.6267153   -0.0809927    1.6076696 
O     0.4795879   -0.3383784    3.4050584 
C     3.2000586   -0.0751180    2.6843284 
H     3.4225515    0.5876492    0.0809979 
C     1.6290782    1.1005531   -1.9221207 
C    -1.0264432    0.7145409   -1.1261142 
C     0.6205519    1.2135647   -2.9156757 
C    -0.7385870    1.0278772   -2.4404738 
N     2.9681059    1.3260268   -2.3577185 
O     0.8796691    1.4732884   -4.1614317 
C    -1.8452244    1.2093456   -3.4421257 
H    -2.0702272    0.6141175   -0.8196319 
H     4.1501352    0.3482798    2.3404695 
H     2.9427039    0.3536125    3.6622873 
N     3.4493757   -1.5234503    2.9057192 
C     4.6023550   -2.2151270    2.5871266 
C     4.3827025   -3.5279424    2.9063947 
N     3.0963080   -3.6087192    3.4095154 
C     2.5451672   -2.3841399    3.4015981 
H     1.5396036   -2.0777329    3.6958525 
C     2.4371512   -4.8305152    3.8721054 
H     5.0220715   -4.3978008    2.8222884 
H     5.4713620   -1.7226734    2.1688359 
H     1.4260215   -4.5795709    4.2057903 
H     2.3864250   -5.5504200    3.0472946 
H     3.0052412   -5.2581145    4.7058847 
N    -2.0188296    0.0070203   -4.2981683 
H    -2.8122641    1.3791568   -2.9555780 
H    -1.6243625    2.0468240   -4.1169766 
C    -3.1134571   -0.8359252   -4.3157045 
C    -2.8299958   -1.8408142   -5.2008432 
N    -1.5639033   -1.5908401   -5.6999321 
C    -1.0872143   -0.4667220   -5.1412893 
H    -0.1126173    0.0061047   -5.2704035 
C    -0.8566312   -2.4150409   -6.6805725 
H    -3.4125889   -2.6973921   -5.5161954 
H    -3.9921506   -0.6498705   -3.7109211 
H     0.1293745   -1.9768806   -6.8613592 
H    -0.7431876   -3.4311110   -6.2861259 
H    -1.4275124   -2.4396229   -7.6156464 
H     3.2565506    0.8226783   -3.1986850 
C     3.7896745    2.3644805   -2.0333045 
O     4.9092598    2.4856460   -2.5702136 
C     3.3009920    3.3488527   -0.9948087 
H     2.2070330    3.4359855   -0.9928852 
H     3.6083463    3.0170683    0.0075251 
H     3.7655386    4.3213530   -1.1936199 
H    -1.9862110    0.4981759    2.3676462 
C    -2.3772340   -1.1862108    1.3469642 
O    -3.5109895   -1.3306904    1.8461675 
C    -1.7798831   -2.2139713    0.4105349 
H    -0.7111220   -2.3639545    0.6154562 
H    -2.3304576   -3.1542248    0.5187942 
H    -1.8606079   -1.8698041   -0.6312626 
