54
Energy =
C    -0.1543588    0.4383389   -0.1409603 
C    -0.5128182   -0.0057076    1.1600510 
C     0.4238441   -0.1859174    2.2097184 
C     1.7992508    0.1334728    1.8632191 
C     2.1782742    0.5565788    0.6005827 
C     1.2279326    0.7243984   -0.4415727 
O    -1.8544833   -0.3241818    1.3791187 
O     0.1051730   -0.6209194    3.3979285 
C     2.8279601   -0.0270947    2.9493465 
H     3.2277765    0.7738441    0.3904839 
C     1.5863066    1.1650332   -1.7439290 
C    -1.1044576    0.6060351   -1.1837675 
C     0.6511288    1.3417451   -2.7948486 
C    -0.7256335    1.0296234   -2.4460494 
O     2.9291611    1.4762791   -1.9670194 
O     0.9755643    1.7497393   -3.9913521 
C    -1.7591383    1.2170822   -3.5236506 
H    -2.1549765    0.3955462   -0.9720983 
H     3.7526943    0.5128663    2.7161951 
H     2.4312090    0.3255238    3.9110705 
N     3.2218587   -1.4469733    3.1506764 
C     4.4835739   -1.9829892    2.9796267 
C     4.3856228   -3.3252453    3.2300473 
N     3.0623001   -3.5788521    3.5449997 
C     2.3710283   -2.4283722    3.4917181 
H     1.3056116   -2.2485673    3.6574951 
C     2.5018786   -4.8877639    3.8813662 
H     5.1322696   -4.1093636    3.2128117 
H     5.3340600   -1.3737512    2.7004080 
H     1.4297479   -4.7730891    4.0656262 
H     2.6615541   -5.5774301    3.0448066 
H     2.9924726   -5.2746210    4.7816694 
N    -1.7488144    0.1057184   -4.5110500 
H    -2.7742512    1.2492602   -3.1128967 
H    -1.5646622    2.1384477   -4.0898022 
C    -2.7826322   -0.7713197   -4.7766036 
C    -2.3269495   -1.6527655   -5.7198106 
N    -1.0209922   -1.2944994   -6.0058672 
C    -0.6871041   -0.2263022   -5.2631389 
H     0.2600598    0.3191505   -5.2028137 
C    -0.1437032   -1.9667068   -6.9642654 
H    -2.8123956   -2.4899027   -6.2056017 
H    -3.7429634   -0.6959711   -4.2817952 
H     0.8327357   -1.4735313   -6.9527480 
H    -0.0296397   -3.0182619   -6.6775320 
H    -0.5790959   -1.8997899   -7.9678532 
C     3.5789215    0.5506277   -2.8572833 
H     4.6128077    0.8998326   -2.9808834 
H     3.5854993   -0.4632074   -2.4200562 
H     3.0690329    0.5328991   -3.8330665 
C    -2.5092341    0.5797394    2.2879382 
H    -3.5425664    0.2249410    2.3994021 
H    -2.0038895    0.5767461    3.2662545 
H    -2.5170898    1.6030797    1.8739498 
