48
Energy =
C    -0.0713956    0.5441632   -0.1187424 
C    -0.3389867    0.1293319    1.2040530 
C     0.6563779   -0.0563335    2.1896569 
C     2.0134658    0.1896040    1.7900714 
C     2.3262608    0.5944003    0.4965590 
C     1.3139561    0.7826148   -0.4808651 
O    -1.6274102   -0.1206557    1.6284912 
O     0.2879155   -0.4522683    3.3940912 
C     3.0922986   -0.0000311    2.8203892 
H     3.3675091    0.7759290    0.2221200 
C     1.5819588    1.1926308   -1.8051575 
C    -1.0838458    0.7330794   -1.0958090 
C     0.5853065    1.3899284   -2.7872771 
C    -0.7716279    1.1434204   -2.3876194 
O     2.8707168    1.4392093   -2.2306580 
O     0.9547586    1.7692107   -3.9965554 
C    -1.8521006    1.3502796   -3.4129503 
H    -2.1253638    0.5545695   -0.8204479 
H     4.0323522    0.4739588    2.5166918 
H     2.7813191    0.4080123    3.7922524 
N     3.4078565   -1.4357657    3.0461792 
C     4.6324898   -2.0488278    2.8649928 
C     4.4617575   -3.3761329    3.1529455 
N     3.1330553   -3.5433922    3.5014502 
C     2.5088838   -2.3564707    3.4308807 
H     1.4597064   -2.1154766    3.6230101 
C     2.5049219   -4.8085598    3.8829036 
H     5.1604848   -4.2032362    3.1402593 
H     5.5104612   -1.4979632    2.5515531 
H     1.4479375   -4.6250453    4.0967097 
H     2.5963662   -5.5231778    3.0570488 
H     2.9994124   -5.2063724    4.7761579 
N    -1.9244096    0.2302713   -4.3887526 
H    -2.8435054    1.4156031   -2.9512200 
H    -1.6667010    2.2621542   -3.9974858 
C    -3.0122963   -0.5878126   -4.6244225 
C    -2.6298758   -1.4986132   -5.5720611 
N    -1.3132393   -1.2163189   -5.8914513 
C    -0.9017276   -0.1651165   -5.1642434 
H     0.0777063    0.3208234   -5.1451727 
C    -0.4988922   -1.9425403   -6.8662027 
H    -3.1728027   -2.3104073   -6.0396977 
H    -3.9541313   -0.4555846   -4.1066314 
H     0.5035593   -1.5048063   -6.8816762 
H    -0.4373343   -2.9969435   -6.5742212 
H    -0.9554727   -1.8572323   -7.8588931 
H     2.6983578    1.6943166   -3.1812337 
H    -1.4541041   -0.3849740    2.5764153 
