46
Energy =
C     0.0529530   -0.0322835    0.1037379 
C     0.3390881   -0.1173891    1.5020427 
C     1.6693976   -0.0801497    2.0128806 
C     2.7154785   -0.0541415    1.0202381 
C     2.4579014    0.0008325   -0.3325173 
C     1.1293515    0.0335908   -0.8556902 
C    -0.7502998   -0.2144865    2.5269576 
O     1.9409955   -0.0608487    3.2871497 
H     3.7472550   -0.0667856    1.3831657 
H     3.3078355    0.0212338   -1.0181271 
C     0.8431791    0.1182837   -2.2540243 
C    -1.2756146    0.0005934   -0.4193674 
C    -0.4871357    0.0805594   -2.7648049 
C    -1.5332083    0.0549978   -1.7721327 
C     1.9326228    0.2149229   -3.2789319 
O    -0.7587671    0.0603834   -4.0390627 
H    -2.5649792    0.0675991   -2.1350836 
H    -2.1255340   -0.0195488    0.2662706 
H    -0.3935115   -0.7989608    3.3859296 
N    -1.1294224    1.1219345    3.0703314 
H    -1.6769625   -0.6618294    2.1524012 
C    -2.3331647    1.7793483    2.9132548 
C    -2.2029946    3.0033734    3.5142329 
N    -0.9177470    3.0657574    4.0227832 
C    -0.2815258    1.9159546    3.7421212 
H     0.7456689    1.6319869    3.9698849 
C    -0.3423308    4.1984575    4.7481342 
H    -2.9034495    3.8218177    3.6236880 
H    -3.1720140    1.3287641    2.3976689 
H     0.6858745    3.9507652    5.0275934 
H    -0.3467999    5.0841203    4.1026710 
H    -0.9336821    4.3923161    5.6502806 
N     2.3120391   -1.1217901   -3.8214132 
H     1.5757574    0.7987759   -4.1382996 
H     2.8591869    0.6626920   -2.9046569 
C     3.5163184   -1.7783387   -3.6648416 
C     3.3862634   -3.0030817   -4.2643719 
N     2.1005761   -3.0667087   -4.7716605 
C     1.4639794   -1.9169641   -4.4916371 
H     0.4365999   -1.6335865   -4.7193093 
C     1.5252367   -4.2003543   -5.4955883 
H     4.0870388   -3.8212887   -4.3735426 
H     4.3553331   -1.3268430   -3.1503186 
H     0.4954470   -3.9549446   -5.7712170 
H     2.1137864   -4.3924669   -6.3999508 
H     1.5340616   -5.0862696   -4.8505316 
