66
Energy =
C     0.0467800   -0.0180075    0.0953547 
C     0.3245616   -0.0662784    1.4943056 
C     1.6464998   -0.0240137    2.0273373 
C     2.7337616   -0.0447952    1.0484763 
C     2.4512006   -0.0186185   -0.3109048 
C     1.1353370    0.0172609   -0.8464493 
C    -0.7781045   -0.1178687    2.5080824 
O     1.8712192    0.0581439    3.3020368 
C     4.1440584   -0.0760705    1.4966340 
H     3.2985764   -0.0551645   -0.9984410 
C     0.8575419    0.0654931   -2.2453926 
C    -1.2690884    0.0180411   -0.4401476 
C    -0.4644187    0.0232493   -2.7784183 
C    -1.5516608    0.0444510   -1.7995272 
C     1.9602086    0.1174366   -3.2591318 
O    -0.6892403   -0.0591843   -4.0530614 
C    -2.9619822    0.0764415   -2.2475689 
H    -2.1164287    0.0547091    0.2474227 
H    -0.4345718   -0.6595159    3.3992538 
N    -1.1722111    1.2416657    2.9784228 
H    -1.6965615   -0.5870265    2.1390026 
C    -2.3782483    1.8812415    2.7724797 
C    -2.2644333    3.1357688    3.3103586 
N    -0.9861692    3.2343959    3.8302194 
C    -0.3384825    2.0764739    3.6178484 
H     0.6870931    1.8151363    3.8745681 
C    -0.4289903    4.4063538    4.5059808 
H    -2.9720610    3.9532986    3.3684140 
H    -3.2086234    1.3983784    2.2727651 
H     0.6052707    4.1898282    4.7890615 
H    -0.4537805    5.2644265    3.8248425 
H    -1.0194760    4.6256305    5.4029092 
N     2.3548298   -1.2418937   -3.7296307 
H     1.6165483    0.6590746   -4.1502651 
H     2.8785072    0.5868140   -2.8899517 
C     3.5610839   -1.8810442   -3.5236415 
C     3.4477272   -3.1356113   -4.0615174 
N     2.1695249   -3.2346739   -4.5814605 
C     1.5214459   -2.0769553   -4.3691649 
H     0.4958963   -1.8158570   -4.6262042 
C     1.6129117   -4.4066901   -5.2575736 
H     4.1556352   -3.9529005   -4.1195446 
H     4.3912252   -1.3979842   -3.0237162 
H     0.5777944   -4.1914299   -5.5384902 
H     2.2020820   -4.6242020   -6.1557828 
H     1.6402126   -5.2654229   -4.5773707 
C    -3.3690860    0.8827696   -3.3311660 
C    -4.7095120    0.9481773   -3.7166597 
C    -5.6813741    0.1996384   -3.0403910 
C    -5.2942110   -0.6142201   -1.9707512 
C    -3.9526431   -0.6756136   -1.5832884 
H    -2.6169312    1.4594542   -3.8671334 
H    -4.9994723    1.5896604   -4.5514775 
H    -6.7274432    0.2467444   -3.3477534 
H    -6.0377969   -1.2124087   -1.4404560 
H    -3.6627926   -1.3334964   -0.7613444 
C     5.1343222    0.6767700    0.8326794 
C     6.4758484    0.6162526    1.2204383 
C     6.8633203   -0.1974343    2.2901023 
C     5.8918586   -0.9468505    2.9659703 
C     4.5514913   -0.8823955    2.5801039 
H     4.8441894    1.3345901    0.0107861 
H     7.2191558    1.2150243    0.6904100 
H     7.9093280   -0.2437868    2.5977948 
H     6.1820888   -1.5882881    3.8007278 
H     3.7996545   -1.4598381    3.1157046 
