48
Energy =
C     0.0512395   -0.0472004    0.0994689 
C     0.3450585   -0.1344070    1.5012465 
C     1.6666704   -0.0802915    1.9866879 
C     2.7185177    0.0000608    1.0004723 
C     2.4711480    0.0574445   -0.3505115 
C     1.1319885    0.0495053   -0.8515452 
C    -0.7301891   -0.2342014    2.5409255 
O     2.0306384   -0.0865856    3.2473630 
O     3.9836853    0.0231596    1.5351358 
H     3.3233980    0.1189103   -1.0295011 
C     0.8381761    0.1362425   -2.2533386 
C    -1.2879366   -0.0549294   -0.4015330 
C    -0.4834458    0.0819586   -2.7387844 
C    -1.5353137    0.0022057   -1.7525318 
C     1.9134433    0.2349198   -3.2931030 
O    -0.8473632    0.0877685   -3.9994886 
O    -2.8005253   -0.0204736   -2.2871305 
H    -2.1401790   -0.1159147    0.2775125 
H    -0.3673467   -0.8120244    3.4012954 
N    -1.1064528    1.1067741    3.0737423 
H    -1.6583447   -0.6899115    2.1804348 
C    -2.2900364    1.7865005    2.8672149 
C    -2.1573240    3.0127664    3.4627296 
N    -0.8903238    3.0548899    4.0166566 
C    -0.2678674    1.8906452    3.7688800 
H     0.7479885    1.6036842    4.0335097 
C    -0.3205060    4.1816734    4.7558876 
H    -2.8451866    3.8453082    3.5408974 
H    -3.1179695    1.3478662    2.3245817 
H     0.6973081    3.9227025    5.0617132 
H    -0.2986347    5.0660988    4.1092591 
H    -0.9328289    4.3831763    5.6421851 
N     2.2892405   -1.1067250   -3.8245586 
H     1.5507465    0.8119691   -4.1540416 
H     2.8417405    0.6907280   -2.9331065 
C     3.4712258   -1.7881236   -3.6143859 
C     3.3380304   -3.0148225   -4.2088838 
N     2.0723105   -3.0555657   -4.7658218 
C     1.4511240   -1.8900382   -4.5208942 
H     0.4362631   -1.6019762   -4.7880152 
C     1.5027840   -4.1819696   -5.5058513 
H     4.0247957   -3.8485001   -4.2845388 
H     4.2984583   -1.3503804   -3.0699835 
H     0.4839239   -3.9241015   -5.8091216 
H     2.1135829   -4.3811571   -6.3937409 
H     1.4835910   -5.0674145   -4.8605596 
H     3.7636220   -0.0167967    2.5122513 
H    -2.5805490    0.0187503   -3.2642793 
