50
Energy =
C     0.0577906   -0.0476007    0.0799874 
C     0.3596884   -0.1476964    1.4777370 
C     1.6829234   -0.1066624    1.9829557 
C     2.7514826   -0.0481956    0.9987275 
C     2.4710242    0.0262590   -0.3552556 
C     1.1387192    0.0478286   -0.8646380 
C    -0.7223058   -0.2462712    2.5093809 
O     1.9761795   -0.0942936    3.2579239 
N     4.0595101   -0.1148698    1.5081201 
H     3.3166118    0.0723711   -1.0469831 
C     0.8367031    0.1483132   -2.2623299 
C    -1.2745304   -0.0268288   -0.4293988 
C    -0.4865567    0.1070037   -2.7676165 
C    -1.5551094    0.0473402   -1.7834254 
C     1.9185568    0.2475354   -3.2940823 
O    -0.7797852    0.0954834   -4.0425576 
N    -2.8632241    0.1124904   -2.2927313 
H    -2.1200898   -0.0737212    0.2623374 
H    -0.3624136   -0.8216060    3.3729784 
N    -1.1090305    1.0935794    3.0428266 
H    -1.6479195   -0.7008784    2.1400687 
C    -2.3298224    1.7262069    2.9232486 
C    -2.1996016    2.9622446    3.4996251 
N    -0.8967876    3.0559427    3.9565016 
C    -0.2506917    1.9134830    3.6681354 
H     0.7881247    1.6513792    3.8677353 
C    -0.3154570    4.2098324    4.6425525 
H    -2.9096796    3.7704997    3.6220381 
H    -3.1788295    1.2525253    2.4464636 
H     0.7297482    3.9887445    4.8780686 
H    -0.3689403    5.0872240    3.9880455 
H    -0.8698955    4.4017630    5.5683258 
N     2.3044098   -1.0919968   -3.8289015 
H     1.5589005    0.8238260   -4.1571139 
H     2.8444401    0.7013501   -2.9244920 
C     3.5205961   -1.7312081   -3.6977902 
C     3.3899571   -2.9655326   -4.2777182 
N     2.0914665   -3.0517495   -4.7480809 
C     1.4483696   -1.9063625   -4.4645580 
H     0.4123800   -1.6391768   -4.6720216 
C     1.5114525   -4.2011912   -5.4426442 
H     4.0972363   -3.7770417   -4.3946472 
H     4.3671050   -1.2627920   -3.2114767 
H     0.4681395   -3.9766057   -5.6831630 
H     2.0707483   -4.3904835   -6.3660485 
H     1.5590827   -5.0814909   -4.7916259 
H     4.7548588    0.4007322    0.9719589 
H     4.0627793    0.1480109    2.4965337 
H    -2.8665851   -0.1520296   -3.2806994 
H    -3.5580398   -0.4028321   -1.7556181 
