50
Energy =
C    -0.0369602   -0.0118593   -0.1587702 
C    -0.1428528    0.1035878    1.2566432 
C     0.9987322    0.1449906    2.1032173 
C     2.2810607    0.0531078    1.4546520 
C     2.4105608   -0.0477567    0.0743898 
C     1.2733817   -0.0707133   -0.7760603 
N    -1.3998048    0.1340429    1.9011070 
O     0.8774791    0.2515299    3.4096664 
C     3.5025802    0.0879525    2.3306758 
H     3.4129735   -0.1287775   -0.3530217 
C     1.3795294   -0.1477057   -2.1939430 
C    -1.1744894   -0.0753841   -1.0060284 
C     0.2377496   -0.2014441   -3.0399712 
C    -1.0449294   -0.1684283   -2.3871431 
N     2.6350417   -0.2342649   -2.8354683 
O     0.3598452   -0.2564171   -4.3495405 
C    -2.2680196   -0.2338589   -3.2597379 
H    -2.1778017   -0.0710541   -0.5728772 
H     4.4111483    0.2988470    1.7554574 
H     3.3899689    0.8417253    3.1227871 
N     3.7442074   -1.2098166    3.0176413 
C     4.8745359   -1.9981750    2.9201790 
C     4.6542321   -3.1099880    3.6881191 
N     3.3903737   -2.9748793    4.2358942 
C     2.8530075   -1.8170972    3.8175101 
H     1.8724274   -1.3821392    4.0372284 
C     2.7394708   -3.9383234    5.1235693 
H     5.2780635   -3.9719716    3.8888680 
H     5.7292007   -1.7076445    2.3220388 
H     1.7524205   -3.5533458    5.3956283 
H     2.6319937   -4.8975243    4.6042701 
H     3.3462983   -4.0702980    6.0265576 
N    -2.5674537    1.0707445   -3.9101267 
H    -2.1290283   -0.9607977   -4.0720739 
H    -3.1638409   -0.4971864   -2.6861681 
C    -3.7255858    1.8126369   -3.7806780 
C    -3.5548582    2.9529641   -4.5189247 
N    -2.2921572    2.8811907   -5.0811167 
C    -1.7075917    1.7332836   -4.7002835 
H    -0.7121410    1.3425532   -4.9362182 
C    -1.6864247    3.8928789   -5.9467866 
H    -4.2128898    3.7956227   -4.6902451 
H    -4.5628860    1.4736049   -3.1834566 
H    -0.6874810    3.5541038   -6.2362888 
H    -2.3052445    4.0255683   -6.8414906 
H    -1.6119571    4.8410924   -5.4021827 
H    -1.2571205    0.4365250    2.8697104 
H    -2.0917046    0.7248793    1.4394061 
H     2.5007110   -0.0445891   -3.8333702 
H     3.3476364    0.3828663   -2.4453673 
