44
Energy =
C    -0.0049245   -0.1100316   -0.0499376 
C     0.0271168   -0.3144396    1.3572279 
C     1.2405063   -0.3515504    2.1060995 
C     2.4385040   -0.1437824    1.3285943 
C     2.4483847    0.0607726   -0.0466171 
C     1.2340923    0.0964049   -0.7741874 
N    -1.1500137   -0.5487715    2.0919700 
O     1.2412963   -0.5448149    3.3944562 
H     3.4021092    0.1383299   -0.5689012 
C     1.2014760    0.3058463   -2.1806838 
C    -1.2153484   -0.1200603   -0.7843947 
C    -0.0085581    0.2992733   -2.9359841 
C    -1.2058544    0.0866799   -2.1589974 
N     2.3827669    0.4813522   -2.9248459 
O    -0.0095657    0.4889060   -4.2246853 
H    -2.1578207   -0.3429369   -0.2841889 
N     3.6853681   -0.1089653    2.0310859 
C     4.8049514    0.6390507    1.6778521 
C     5.7657242    0.4016570    2.6184826 
N     5.2259874   -0.4821497    3.5353490 
C     3.9673440   -0.7781513    3.1695732 
H     3.2758564   -1.4271329    3.6888882 
C     5.9032634   -0.9946934    4.7255973 
H     6.7707327    0.7916361    2.7198397 
H     4.8124266    1.2865264    0.8115312 
H     5.2374147   -1.6980032    5.2343950 
H     6.8237869   -1.5093389    4.4273123 
H     6.1433530   -0.1624578    5.3975442 
N    -2.4591604    0.1342340   -2.8488774 
C    -3.6692903    0.5751965   -2.3206229 
C    -4.6044838    0.4778566   -3.3106403 
N    -3.9597598   -0.0152918   -4.4305370 
C    -2.6635126   -0.2138547   -4.1373793 
H    -1.8956456   -0.5770479   -4.8060758 
C    -4.5792455   -0.2591786   -5.7320418 
H    -5.6580741    0.7274104   -3.3177194 
H    -3.7537209    0.9388813   -1.3054981 
H    -3.8284014   -0.6823929   -6.4057120 
H    -5.4084341   -0.9659752   -5.6136831 
H    -4.9526188    0.6859388   -6.1432496 
H    -0.9413648   -0.4617660    3.0910127 
H    -1.9364536    0.0459503    1.8314415 
H     2.1400429    0.8249990   -3.8587865 
H     3.0756303    1.0854252   -2.4831252 
