52
Energy =
C     0.0757330    0.0545158   -0.1619034 
C    -0.0859146    0.0851021    1.2318670 
C     1.0086178    0.0320873    2.1196740 
C     2.3362980   -0.0557250    1.5365366 
C     2.4979262   -0.0865100    0.1427588 
C     1.4033906   -0.0335551   -0.7450416 
H    -1.0983044    0.1521538    1.6426014 
C     0.8642400    0.0625658    3.5337795 
C     3.4464052   -0.1088490    2.4341118 
H     3.5103189   -0.1534553   -0.2679840 
C     1.5477326   -0.0641273   -2.1591701 
C    -1.0343656    0.1082990   -1.0594494 
C     0.4568873   -0.0173607   -3.0490010 
C    -0.8699344    0.0777400   -2.4239790 
H     2.5529033   -0.1317395   -2.5872763 
O     0.5627841   -0.0564899   -4.3439141 
C    -2.0600860    0.1474077   -3.3415706 
H    -2.0417726    0.1800776   -0.6359584 
C     3.2819571   -0.0780422    3.7986425 
C     1.9550810    0.0164262    4.4236800 
H     4.4538500   -0.1802981    2.0106457 
H    -0.1409907    0.1295429    3.9618504 
O     1.8490107    0.0555039    5.7185266 
C     4.4721462   -0.1467487    4.7162438 
N     4.8392720    1.1876979    5.2557398 
H     4.2538964   -0.7871176    5.5811341 
H     5.3632019   -0.5221879    4.2009626 
C     5.9880733    1.8984998    4.9652515 
C     5.8977584    3.0929874    5.6271837 
N     4.6910105    3.0865619    6.3038679 
C     4.0624916    1.9237466    6.0669504 
H     3.0783286    1.5929234    6.4002534 
C     4.1785246    4.1702932    7.1426837 
H     6.5793783    3.9328889    5.6765062 
H     6.7646520    1.4993565    4.3248363 
H     3.1950402    3.8825383    7.5254008 
H     4.8659143    4.3403998    7.9789706 
H     4.0893225    5.0827198    6.5423616 
H    -1.8412727    0.7875538   -4.2064896 
N    -2.4284388   -1.1867299   -3.8810281 
H    -2.9507916    0.5236605   -2.8262730 
C    -3.5788633   -1.8955615   -3.5921578 
C    -3.4895793   -3.0902943   -4.2537964 
N    -2.2818249   -3.0859875   -4.9286872 
C    -1.6516884   -1.9242140   -4.6909655 
H    -0.6666004   -1.5950104   -5.0231464 
C    -1.7697003   -4.1708957   -5.7662140 
H    -4.1725067   -3.9290865   -4.3039496 
H    -4.3557320   -1.4950234   -2.9529655 
H    -0.7860598   -3.8839836   -6.1491695 
H    -1.6809957   -5.0827439   -5.1649339 
H    -2.4571029   -4.3415126   -6.6024037 
