58
Energy =
C     0.0837561    0.0571079   -0.1661764 
C    -0.0820995    0.0792856    1.2285617 
C     1.0038660    0.0244603    2.1293474 
C     2.3284675   -0.0555228    1.5393996 
C     2.4943157   -0.0777492    0.1446568 
C     1.4083272   -0.0232856   -0.7561296 
H    -1.1014506    0.1412469    1.6159569 
C     0.8401364    0.0465847    3.5499558 
C     3.4459753   -0.1100383    2.4236073 
H     3.5136672   -0.1396877   -0.2427459 
C     1.5719466   -0.0466251   -2.1767338 
C    -1.0337716    0.1116823   -1.0503517 
C     0.4508408    0.0007500   -3.0448898 
C    -0.8696322    0.0870380   -2.4140943 
C     2.9499438   -0.1294187   -2.7791331 
O     0.5305810   -0.0326970   -4.3442772 
C    -2.0640454    0.1537817   -3.3267289 
H    -2.0391133    0.1768409   -0.6211334 
C     3.2817319   -0.0864996    3.7873604 
C     1.9611640   -0.0016715    4.4181687 
H     4.4513742   -0.1744425    1.9944019 
C    -0.5379689    0.1281801    4.1522774 
O     1.8812558    0.0296878    5.7175872 
C     4.4761016   -0.1532654    4.7000435 
N     4.8420461    1.1811661    5.2418186 
H     4.2655771   -0.7973295    5.5640416 
H     5.3659502   -0.5220461    4.1777271 
C     6.0034836    1.8805316    4.9749770 
C     5.9095137    3.0781585    5.6308707 
N     4.6880848    3.0847781    6.2806504 
C     4.0542619    1.9267526    6.0334747 
H     3.0618250    1.6013232    6.3490096 
C     4.1665559    4.1762654    7.1035716 
H     6.5972733    3.9122534    5.6921115 
H     6.7902412    1.4725163    4.3528266 
H     3.1727966    3.8980980    7.4663327 
H     4.8370978    4.3447036    7.9538266 
H     4.0975720    5.0868040    6.4976993 
H    -1.8530252    0.7966248   -4.1915186 
N    -2.4312979   -1.1809350   -3.8669328 
H    -2.9534882    0.5240138   -2.8047384 
C    -3.5941943   -1.8781190   -3.6007550 
C    -3.5012779   -3.0767005   -4.2550608 
N    -2.2789953   -3.0860741   -4.9031975 
C    -1.6436567   -1.9287544   -4.6566121 
H    -0.6504442   -1.6050769   -4.9715581 
C    -1.7580554   -4.1794826   -5.7239429 
H    -4.1902745   -3.9097907   -4.3161394 
H    -4.3810971   -1.4680880   -2.9801135 
H    -0.7638343   -3.9028887   -6.0866523 
H    -1.6902974   -5.0890712   -5.1165071 
H    -2.4283030   -4.3486825   -6.5742766 
H    -0.4595518    0.1221677    5.2470046 
H    -1.0711988    1.0469024    3.8510778 
H    -1.1773721   -0.7182606    3.8469455 
H     2.8713897   -0.1241706   -3.8738545 
H     3.5898990    0.7168570   -2.4744991 
H     3.4826401   -1.0482451   -2.4773143 
