72
Energy =
C     0.0395524    0.0366663   -0.1865910 
C    -0.1425692    0.0728577    1.2052542 
C     0.9290557    0.0513142    2.1211921 
C     2.2531147   -0.0839356    1.5433349 
C     2.4359430   -0.1078687    0.1513967 
C     1.3691108   -0.0129828   -0.7655416 
H    -1.1672961    0.1012156    1.5803543 
C     0.7647710    0.0984435    3.5487555 
C     3.3619281   -0.2080425    2.4317912 
H     3.4552056   -0.2210879   -0.2223586 
C     1.5356021   -0.0240183   -2.1938256 
C    -1.0776040    0.0274081   -1.0730978 
C     0.4081645   -0.0598961   -3.0662291 
C    -0.9144234   -0.0263030   -2.4341011 
C     2.8867509    0.0127708   -2.7994565 
O     0.4864686   -0.0955301   -4.3580914 
C    -2.1086960   -0.0329368   -3.3487539 
H    -2.0843230    0.0631551   -0.6439472 
C     3.1958669   -0.2035169    3.7934068 
C     1.8808206   -0.0505034    4.4242020 
H     4.3640873   -0.3140625    2.0034679 
C    -0.5671902    0.3341586    4.1523065 
O     1.8033962   -0.0215992    5.7160569 
C     4.3821226   -0.3411797    4.7090090 
N     4.8227012    0.9694048    5.2528139 
H     4.1340180   -0.9742235    5.5706626 
H     5.2497722   -0.7596161    4.1868549 
C     6.0110210    1.6133058    4.9647401 
C     5.9892719    2.8100137    5.6284404 
N     4.7835102    2.8723299    6.3037739 
C     4.0890178    1.7482016    6.0644968 
H     3.0885322    1.4757603    6.3997860 
C     4.3328596    3.9835485    7.1422999 
H     6.7182270    3.6091109    5.6798493 
H     6.7637396    1.1706440    4.3244788 
H     3.3346672    3.7518154    7.5251004 
H     5.0286889    4.1147720    7.9785688 
H     4.2951434    4.8992305    6.5414930 
H    -1.9300974    0.6086157   -4.2217186 
N    -2.4034737   -1.3922421   -3.8703825 
H    -3.0166164    0.2976868   -2.8323304 
C    -3.5171996   -2.1550810   -3.5756755 
C    -3.3641586   -3.3529686   -4.2196760 
N    -2.1554780   -3.2962068   -4.8904283 
C    -1.5866688   -2.1004446   -4.6670042 
H    -0.6207318   -1.7232374   -5.0035586 
C    -1.5857663   -4.3648709   -5.7113971 
H    -4.0028611   -4.2263729   -4.2597066 
H    -4.3162004   -1.7862713   -2.9447161 
H    -0.6163152   -4.0344261   -6.0955163 
H    -1.4536791   -5.2630677   -5.0976956 
H    -2.2599839   -4.5810054   -6.5478413 
C    -1.0750367   -0.5244666    5.1476411 
C    -2.3218972   -0.2970659    5.7349253 
C    -3.0965797    0.8034834    5.3478270 
C    -2.6054070    1.6731089    4.3676433 
C    -1.3579386    1.4404497    3.7820308 
H    -0.4729683   -1.3779173    5.4603597 
H    -2.6930217   -0.9832408    6.4992794 
H    -4.0700836    0.9827929    5.8074973 
H    -3.1934264    2.5409835    4.0617070 
H    -0.9797855    2.1323381    3.0264677 
C     3.2739936   -0.9371131   -3.7661623 
C     4.5434090   -0.9034013   -4.3488877 
C     5.4626613    0.0894965   -3.9865489 
C     5.0926419    1.0488334   -3.0369258 
C     3.8219838    1.0100493   -2.4555839 
H     2.5593649   -1.7064326   -4.0581307 
H     4.8188194   -1.6572625   -5.0895304 
H     6.4543322    0.1165602   -4.4415270 
H     5.7945550    1.8350224   -2.7513428 
H     3.5401761    1.7702232   -1.7243961 
