46
Energy =
C    -0.0298329    0.0028510    0.0012507 
C     0.0014996    0.1819528    1.3927957 
C     1.2085969    0.1892782    2.1204194 
C     2.4404451   -0.0017946    1.3732390 
C     2.4091015   -0.1808561   -0.0183328 
C     1.2020210   -0.1880825   -0.7459775 
H    -0.9421740    0.3232695    1.9273943 
C     1.2616785    0.3806278    3.5260479 
C     3.6625773    0.0055644    2.1049632 
H     3.3527772   -0.3221675   -0.5529305 
C     1.1489787   -0.3790680   -2.1516907 
C    -1.2520219   -0.0047983   -0.7304015 
C    -0.0461867   -0.4040635   -2.8992626 
C    -1.2603764   -0.1811103   -2.0930986 
H     2.0828056   -0.5265776   -2.7013551 
O    -0.1192819   -0.5972367   -4.1714452 
H    -2.1918648    0.1166168   -0.1865721 
C     3.6709967    0.1820115    3.4676870 
C     2.4568400    0.4059313    4.2736298 
H     4.6023528   -0.1162950    1.5611250 
H     0.3278738    0.5282927    4.0757091 
O     2.5297368    0.6000619    5.5456570 
N     4.9200002    0.1165895    4.1604179 
C     5.9872267   -0.7207713    3.8497455 
C     6.9641896   -0.4890869    4.7737054 
N     6.4849470    0.4821864    5.6363627 
C     5.2469382    0.8334924    5.2566800 
H     4.6084303    1.5619874    5.7356476 
C     7.2040768    1.0260840    6.7881165 
H     7.9430208   -0.9347734    4.8986735 
H     5.9470975   -1.4167310    3.0224289 
H     6.5864890    1.7978129    7.2567727 
H     7.4011746    0.2230066    7.5075810 
H     8.1500964    1.4643678    6.4507686 
N    -2.5094224   -0.1164223   -2.7858023 
C    -3.5764055    0.7217202   -2.4765007 
C    -4.5531748    0.4892043   -3.4004702 
N    -4.0740013   -0.4833416   -4.2617563 
C    -2.8362621   -0.8346228   -3.8811996 
H    -2.1981423   -1.5643847   -4.3587323 
C    -4.7933728   -1.0291332   -5.4124631 
H    -5.5318289    0.9350371   -3.5262974 
H    -3.5361010    1.4188615   -1.6501792 
H    -4.1727850   -1.7964458   -5.8843931 
H    -5.7360746   -1.4732980   -5.0734478 
H    -4.9968048   -0.2257422   -6.1297778 
