52
Energy =
C    -0.0477743   -0.4356594    0.2090969 
C     0.1113755   -0.0716376    1.5558307 
C     1.3390967    0.3797530    2.0851001 
C     2.4577121    0.4384800    1.1684777 
C     2.2986177    0.0743170   -0.1782305 
C     1.0709855   -0.3774714   -0.7073904 
H    -0.7670549   -0.1483774    2.2016756 
C     1.5226500    0.7528784    3.4564083 
C     3.7217519    0.8754786    1.6833649 
H     3.1769967    0.1513021   -0.8241141 
C     0.8876815   -0.7515902   -2.0784437 
C    -1.3118960   -0.8723192   -0.3058678 
C    -0.3830615   -1.1460107   -2.5930759 
C    -1.4715045   -1.2084932   -1.6224208 
C     2.0297552   -0.7046436   -3.0343442 
O    -0.6016303   -1.4385497   -3.8290621 
H    -2.4453984   -1.5299686   -2.0015596 
H    -2.1615278   -0.9252836    0.3818732 
C     3.8815831    1.2108402    3.0000890 
C     2.7934347    1.1472445    3.9710213 
H     4.5711925    0.9291614    0.9954424 
C     0.3809647    0.7041554    4.4127037 
O     3.0123198    1.4389346    5.2071243 
H     4.8554514    1.5324526    3.3791743 
N     0.0132518   -0.6965548    4.7994194 
H     0.6643151    1.2206050    5.3403735 
H    -0.5439047    1.1479904    4.0172297 
C    -1.1413165   -1.0884806    5.4490237 
C    -1.0687537   -2.4453233    5.6141993 
N     0.1312104   -2.8534470    5.0608554 
C     0.7692381   -1.7771446    4.5711993 
H     1.7274527   -1.7708537    4.0669195 
C     0.6179190   -4.2319642    4.9982082 
H    -1.7585168   -3.1463225    6.0680260 
H    -1.9073893   -0.3780445    5.7338380 
H     1.6004446   -4.2365274    4.5175073 
H     0.7015619   -4.6340621    6.0141129 
H    -0.0823346   -4.8389908    4.4132432 
H     1.7467559   -1.2226580   -3.9612516 
N     2.3978863    0.6952762   -3.4235036 
H     2.9543493   -1.1479598   -2.6376585 
C     3.5522444    1.0855343   -4.0744877 
C     3.4799437    2.4420439   -4.2424629 
N     2.2803190    2.8516277   -3.6894540 
C     1.6422878    1.7765244   -3.1971700 
H     0.6844334    1.7715640   -2.6922051 
C     1.7944035    4.2305069   -3.6287743 
H     4.1696528    3.1419397   -4.6980749 
H     4.3178901    0.3742603   -4.3583589 
H     0.8092044    4.2356407   -3.1535807 
H     2.4918814    4.8368857   -3.0398364 
H     1.7166251    4.6329410   -4.6449969 
